
---------- Begin Simulation Statistics ----------
final_tick                                   30163000                       # Number of ticks from beginning of simulation (restored from checkpoints and never reset)
host_inst_rate                                 346289                       # Simulator instruction rate (inst/s)
host_mem_usage                                 678752                       # Number of bytes of host memory used
host_op_rate                                   411657                       # Simulator op (including micro ops) rate (op/s)
host_seconds                                     0.04                       # Real time elapsed on the host
host_tick_rate                              786691936                       # Simulator tick rate (ticks/s)
sim_freq                                 1000000000000                       # Frequency of simulated ticks
sim_insts                                       13249                       # Number of instructions simulated
sim_ops                                         15779                       # Number of ops (including micro ops) simulated
sim_seconds                                  0.000030                       # Number of seconds simulated
sim_ticks                                    30163000                       # Number of ticks simulated
system.cpu.branchPred.BTBCorrect                    0                       # Number of correct BTB predictions (this stat may not work properly.
system.cpu.branchPred.BTBHitPct             36.932849                       # BTB Hit Percentage
system.cpu.branchPred.BTBHits                    1221                       # Number of BTB hits
system.cpu.branchPred.BTBLookups                 3306                       # Number of BTB lookups
system.cpu.branchPred.RASInCorrect                  5                       # Number of incorrect RAS predictions.
system.cpu.branchPred.condIncorrect               605                       # Number of conditional branches incorrect
system.cpu.branchPred.condPredicted              2527                       # Number of conditional branches predicted
system.cpu.branchPred.indirectHits                 42                       # Number of indirect target hits.
system.cpu.branchPred.indirectLookups             180                       # Number of indirect predictor lookups.
system.cpu.branchPred.indirectMisses              138                       # Number of indirect misses.
system.cpu.branchPred.lookups                    4199                       # Number of BP lookups
system.cpu.branchPred.usedRAS                     504                       # Number of times the RAS was used to get a target.
system.cpu.branchPredindirectMispredicted           65                       # Number of mispredicted indirect branches.
system.cpu.committedInsts                       13249                       # Number of instructions committed
system.cpu.committedOps                         15779                       # Number of ops (including micro ops) committed
system.cpu.cpi                               4.553249                       # CPI: cycles per instruction
system.cpu.discardedOps                          1942                       # Number of ops (including micro ops) which were discarded before commit
system.cpu.dtb.accesses                             0                       # DTB accesses
system.cpu.dtb.align_faults                         0                       # Number of TLB faults due to alignment restrictions
system.cpu.dtb.domain_faults                        0                       # Number of TLB faults due to domain restrictions
system.cpu.dtb.flush_entries                        0                       # Number of entries that have been flushed from TLB
system.cpu.dtb.flush_tlb                            0                       # Number of times complete TLB was flushed
system.cpu.dtb.flush_tlb_asid                       0                       # Number of times TLB was flushed by ASID
system.cpu.dtb.flush_tlb_mva                        0                       # Number of times TLB was flushed by MVA
system.cpu.dtb.flush_tlb_mva_asid                   0                       # Number of times TLB was flushed by MVA & ASID
system.cpu.dtb.hits                                 0                       # DTB hits
system.cpu.dtb.inst_accesses                        0                       # ITB inst accesses
system.cpu.dtb.inst_hits                            0                       # ITB inst hits
system.cpu.dtb.inst_misses                          0                       # ITB inst misses
system.cpu.dtb.misses                               0                       # DTB misses
system.cpu.dtb.perms_faults                         0                       # Number of TLB faults due to permissions restrictions
system.cpu.dtb.prefetch_faults                      0                       # Number of TLB faults due to prefetch
system.cpu.dtb.read_accesses                        0                       # DTB read accesses
system.cpu.dtb.read_hits                            0                       # DTB read hits
system.cpu.dtb.read_misses                          0                       # DTB read misses
system.cpu.dtb.stage2_mmu.stage2_tlb.accesses            0                       # DTB accesses
system.cpu.dtb.stage2_mmu.stage2_tlb.align_faults            0                       # Number of TLB faults due to alignment restrictions
system.cpu.dtb.stage2_mmu.stage2_tlb.domain_faults            0                       # Number of TLB faults due to domain restrictions
system.cpu.dtb.stage2_mmu.stage2_tlb.flush_entries            0                       # Number of entries that have been flushed from TLB
system.cpu.dtb.stage2_mmu.stage2_tlb.flush_tlb            0                       # Number of times complete TLB was flushed
system.cpu.dtb.stage2_mmu.stage2_tlb.flush_tlb_asid            0                       # Number of times TLB was flushed by ASID
system.cpu.dtb.stage2_mmu.stage2_tlb.flush_tlb_mva            0                       # Number of times TLB was flushed by MVA
system.cpu.dtb.stage2_mmu.stage2_tlb.flush_tlb_mva_asid            0                       # Number of times TLB was flushed by MVA & ASID
system.cpu.dtb.stage2_mmu.stage2_tlb.hits            0                       # DTB hits
system.cpu.dtb.stage2_mmu.stage2_tlb.inst_accesses            0                       # ITB inst accesses
system.cpu.dtb.stage2_mmu.stage2_tlb.inst_hits            0                       # ITB inst hits
system.cpu.dtb.stage2_mmu.stage2_tlb.inst_misses            0                       # ITB inst misses
system.cpu.dtb.stage2_mmu.stage2_tlb.misses            0                       # DTB misses
system.cpu.dtb.stage2_mmu.stage2_tlb.perms_faults            0                       # Number of TLB faults due to permissions restrictions
system.cpu.dtb.stage2_mmu.stage2_tlb.prefetch_faults            0                       # Number of TLB faults due to prefetch
system.cpu.dtb.stage2_mmu.stage2_tlb.read_accesses            0                       # DTB read accesses
system.cpu.dtb.stage2_mmu.stage2_tlb.read_hits            0                       # DTB read hits
system.cpu.dtb.stage2_mmu.stage2_tlb.read_misses            0                       # DTB read misses
system.cpu.dtb.stage2_mmu.stage2_tlb.walker.walkRequestOrigin_Requested::Data            0                       # Table walker requests started/completed, data/inst
system.cpu.dtb.stage2_mmu.stage2_tlb.walker.walkRequestOrigin_Requested::Inst            0                       # Table walker requests started/completed, data/inst
system.cpu.dtb.stage2_mmu.stage2_tlb.walker.walkRequestOrigin_Requested::total            0                       # Table walker requests started/completed, data/inst
system.cpu.dtb.stage2_mmu.stage2_tlb.walker.walkRequestOrigin_Completed::Data            0                       # Table walker requests started/completed, data/inst
system.cpu.dtb.stage2_mmu.stage2_tlb.walker.walkRequestOrigin_Completed::Inst            0                       # Table walker requests started/completed, data/inst
system.cpu.dtb.stage2_mmu.stage2_tlb.walker.walkRequestOrigin_Completed::total            0                       # Table walker requests started/completed, data/inst
system.cpu.dtb.stage2_mmu.stage2_tlb.walker.walkRequestOrigin::total            0                       # Table walker requests started/completed, data/inst
system.cpu.dtb.stage2_mmu.stage2_tlb.walker.walks            0                       # Table walker walks requested
system.cpu.dtb.stage2_mmu.stage2_tlb.write_accesses            0                       # DTB write accesses
system.cpu.dtb.stage2_mmu.stage2_tlb.write_hits            0                       # DTB write hits
system.cpu.dtb.stage2_mmu.stage2_tlb.write_misses            0                       # DTB write misses
system.cpu.dtb.walker.walkRequestOrigin_Requested::Data            0                       # Table walker requests started/completed, data/inst
system.cpu.dtb.walker.walkRequestOrigin_Requested::Inst            0                       # Table walker requests started/completed, data/inst
system.cpu.dtb.walker.walkRequestOrigin_Requested::total            0                       # Table walker requests started/completed, data/inst
system.cpu.dtb.walker.walkRequestOrigin_Completed::Data            0                       # Table walker requests started/completed, data/inst
system.cpu.dtb.walker.walkRequestOrigin_Completed::Inst            0                       # Table walker requests started/completed, data/inst
system.cpu.dtb.walker.walkRequestOrigin_Completed::total            0                       # Table walker requests started/completed, data/inst
system.cpu.dtb.walker.walkRequestOrigin::total            0                       # Table walker requests started/completed, data/inst
system.cpu.dtb.walker.walks                         0                       # Table walker walks requested
system.cpu.dtb.write_accesses                       0                       # DTB write accesses
system.cpu.dtb.write_hits                           0                       # DTB write hits
system.cpu.dtb.write_misses                         0                       # DTB write misses
system.cpu.fetch2.amo_instructions                  0                       # Number of memory atomic instructions successfully decoded
system.cpu.fetch2.fp_instructions                   0                       # Number of floating point instructions successfully decoded
system.cpu.fetch2.int_instructions              12033                       # Number of integer instructions successfully decoded
system.cpu.fetch2.load_instructions              2740                       # Number of memory load instructions successfully decoded
system.cpu.fetch2.store_instructions             1525                       # Number of memory store instructions successfully decoded
system.cpu.fetch2.vec_instructions                  0                       # Number of SIMD instructions successfully decoded
system.cpu.idleCycles                           36908                       # Total number of cycles that the object has spent stopped
system.cpu.ipc                               0.219623                       # IPC: instructions per cycle
system.cpu.itb.accesses                             0                       # DTB accesses
system.cpu.itb.align_faults                         0                       # Number of TLB faults due to alignment restrictions
system.cpu.itb.domain_faults                        0                       # Number of TLB faults due to domain restrictions
system.cpu.itb.flush_entries                        0                       # Number of entries that have been flushed from TLB
system.cpu.itb.flush_tlb                            0                       # Number of times complete TLB was flushed
system.cpu.itb.flush_tlb_asid                       0                       # Number of times TLB was flushed by ASID
system.cpu.itb.flush_tlb_mva                        0                       # Number of times TLB was flushed by MVA
system.cpu.itb.flush_tlb_mva_asid                   0                       # Number of times TLB was flushed by MVA & ASID
system.cpu.itb.hits                                 0                       # DTB hits
system.cpu.itb.inst_accesses                        0                       # ITB inst accesses
system.cpu.itb.inst_hits                            0                       # ITB inst hits
system.cpu.itb.inst_misses                          0                       # ITB inst misses
system.cpu.itb.misses                               0                       # DTB misses
system.cpu.itb.perms_faults                         0                       # Number of TLB faults due to permissions restrictions
system.cpu.itb.prefetch_faults                      0                       # Number of TLB faults due to prefetch
system.cpu.itb.read_accesses                        0                       # DTB read accesses
system.cpu.itb.read_hits                            0                       # DTB read hits
system.cpu.itb.read_misses                          0                       # DTB read misses
system.cpu.itb.stage2_mmu.stage2_tlb.accesses            0                       # DTB accesses
system.cpu.itb.stage2_mmu.stage2_tlb.align_faults            0                       # Number of TLB faults due to alignment restrictions
system.cpu.itb.stage2_mmu.stage2_tlb.domain_faults            0                       # Number of TLB faults due to domain restrictions
system.cpu.itb.stage2_mmu.stage2_tlb.flush_entries            0                       # Number of entries that have been flushed from TLB
system.cpu.itb.stage2_mmu.stage2_tlb.flush_tlb            0                       # Number of times complete TLB was flushed
system.cpu.itb.stage2_mmu.stage2_tlb.flush_tlb_asid            0                       # Number of times TLB was flushed by ASID
system.cpu.itb.stage2_mmu.stage2_tlb.flush_tlb_mva            0                       # Number of times TLB was flushed by MVA
system.cpu.itb.stage2_mmu.stage2_tlb.flush_tlb_mva_asid            0                       # Number of times TLB was flushed by MVA & ASID
system.cpu.itb.stage2_mmu.stage2_tlb.hits            0                       # DTB hits
system.cpu.itb.stage2_mmu.stage2_tlb.inst_accesses            0                       # ITB inst accesses
system.cpu.itb.stage2_mmu.stage2_tlb.inst_hits            0                       # ITB inst hits
system.cpu.itb.stage2_mmu.stage2_tlb.inst_misses            0                       # ITB inst misses
system.cpu.itb.stage2_mmu.stage2_tlb.misses            0                       # DTB misses
system.cpu.itb.stage2_mmu.stage2_tlb.perms_faults            0                       # Number of TLB faults due to permissions restrictions
system.cpu.itb.stage2_mmu.stage2_tlb.prefetch_faults            0                       # Number of TLB faults due to prefetch
system.cpu.itb.stage2_mmu.stage2_tlb.read_accesses            0                       # DTB read accesses
system.cpu.itb.stage2_mmu.stage2_tlb.read_hits            0                       # DTB read hits
system.cpu.itb.stage2_mmu.stage2_tlb.read_misses            0                       # DTB read misses
system.cpu.itb.stage2_mmu.stage2_tlb.walker.walkRequestOrigin_Requested::Data            0                       # Table walker requests started/completed, data/inst
system.cpu.itb.stage2_mmu.stage2_tlb.walker.walkRequestOrigin_Requested::Inst            0                       # Table walker requests started/completed, data/inst
system.cpu.itb.stage2_mmu.stage2_tlb.walker.walkRequestOrigin_Requested::total            0                       # Table walker requests started/completed, data/inst
system.cpu.itb.stage2_mmu.stage2_tlb.walker.walkRequestOrigin_Completed::Data            0                       # Table walker requests started/completed, data/inst
system.cpu.itb.stage2_mmu.stage2_tlb.walker.walkRequestOrigin_Completed::Inst            0                       # Table walker requests started/completed, data/inst
system.cpu.itb.stage2_mmu.stage2_tlb.walker.walkRequestOrigin_Completed::total            0                       # Table walker requests started/completed, data/inst
system.cpu.itb.stage2_mmu.stage2_tlb.walker.walkRequestOrigin::total            0                       # Table walker requests started/completed, data/inst
system.cpu.itb.stage2_mmu.stage2_tlb.walker.walks            0                       # Table walker walks requested
system.cpu.itb.stage2_mmu.stage2_tlb.write_accesses            0                       # DTB write accesses
system.cpu.itb.stage2_mmu.stage2_tlb.write_hits            0                       # DTB write hits
system.cpu.itb.stage2_mmu.stage2_tlb.write_misses            0                       # DTB write misses
system.cpu.itb.walker.walkRequestOrigin_Requested::Data            0                       # Table walker requests started/completed, data/inst
system.cpu.itb.walker.walkRequestOrigin_Requested::Inst            0                       # Table walker requests started/completed, data/inst
system.cpu.itb.walker.walkRequestOrigin_Requested::total            0                       # Table walker requests started/completed, data/inst
system.cpu.itb.walker.walkRequestOrigin_Completed::Data            0                       # Table walker requests started/completed, data/inst
system.cpu.itb.walker.walkRequestOrigin_Completed::Inst            0                       # Table walker requests started/completed, data/inst
system.cpu.itb.walker.walkRequestOrigin_Completed::total            0                       # Table walker requests started/completed, data/inst
system.cpu.itb.walker.walkRequestOrigin::total            0                       # Table walker requests started/completed, data/inst
system.cpu.itb.walker.walks                         0                       # Table walker walks requested
system.cpu.itb.write_accesses                       0                       # DTB write accesses
system.cpu.itb.write_hits                           0                       # DTB write hits
system.cpu.itb.write_misses                         0                       # DTB write misses
system.cpu.numCycles                            60326                       # number of cpu cycles simulated
system.cpu.numFetchSuspends                         0                       # Number of times Execute suspended instruction fetching
system.cpu.numWorkItemsCompleted                    0                       # number of work items this cpu completed
system.cpu.numWorkItemsStarted                      0                       # number of work items this cpu started
system.cpu.op_class_0::No_OpClass                   0      0.00%      0.00% # Class of committed instruction
system.cpu.op_class_0::IntAlu                   10825     68.60%     68.60% # Class of committed instruction
system.cpu.op_class_0::IntMult                     49      0.31%     68.91% # Class of committed instruction
system.cpu.op_class_0::IntDiv                       0      0.00%     68.91% # Class of committed instruction
system.cpu.op_class_0::FloatAdd                     0      0.00%     68.91% # Class of committed instruction
system.cpu.op_class_0::FloatCmp                     0      0.00%     68.91% # Class of committed instruction
system.cpu.op_class_0::FloatCvt                     0      0.00%     68.91% # Class of committed instruction
system.cpu.op_class_0::FloatMult                    0      0.00%     68.91% # Class of committed instruction
system.cpu.op_class_0::FloatMultAcc                 0      0.00%     68.91% # Class of committed instruction
system.cpu.op_class_0::FloatDiv                     0      0.00%     68.91% # Class of committed instruction
system.cpu.op_class_0::FloatMisc                    0      0.00%     68.91% # Class of committed instruction
system.cpu.op_class_0::FloatSqrt                    0      0.00%     68.91% # Class of committed instruction
system.cpu.op_class_0::SimdAdd                      0      0.00%     68.91% # Class of committed instruction
system.cpu.op_class_0::SimdAddAcc                   0      0.00%     68.91% # Class of committed instruction
system.cpu.op_class_0::SimdAlu                      0      0.00%     68.91% # Class of committed instruction
system.cpu.op_class_0::SimdCmp                      0      0.00%     68.91% # Class of committed instruction
system.cpu.op_class_0::SimdCvt                      0      0.00%     68.91% # Class of committed instruction
system.cpu.op_class_0::SimdMisc                     0      0.00%     68.91% # Class of committed instruction
system.cpu.op_class_0::SimdMult                     0      0.00%     68.91% # Class of committed instruction
system.cpu.op_class_0::SimdMultAcc                  0      0.00%     68.91% # Class of committed instruction
system.cpu.op_class_0::SimdShift                    0      0.00%     68.91% # Class of committed instruction
system.cpu.op_class_0::SimdShiftAcc                 0      0.00%     68.91% # Class of committed instruction
system.cpu.op_class_0::SimdDiv                      0      0.00%     68.91% # Class of committed instruction
system.cpu.op_class_0::SimdSqrt                     0      0.00%     68.91% # Class of committed instruction
system.cpu.op_class_0::SimdFloatAdd                 0      0.00%     68.91% # Class of committed instruction
system.cpu.op_class_0::SimdFloatAlu                 0      0.00%     68.91% # Class of committed instruction
system.cpu.op_class_0::SimdFloatCmp                 0      0.00%     68.91% # Class of committed instruction
system.cpu.op_class_0::SimdFloatCvt                 0      0.00%     68.91% # Class of committed instruction
system.cpu.op_class_0::SimdFloatDiv                 0      0.00%     68.91% # Class of committed instruction
system.cpu.op_class_0::SimdFloatMisc               21      0.13%     69.05% # Class of committed instruction
system.cpu.op_class_0::SimdFloatMult                0      0.00%     69.05% # Class of committed instruction
system.cpu.op_class_0::SimdFloatMultAcc             0      0.00%     69.05% # Class of committed instruction
system.cpu.op_class_0::SimdFloatSqrt                0      0.00%     69.05% # Class of committed instruction
system.cpu.op_class_0::SimdReduceAdd                0      0.00%     69.05% # Class of committed instruction
system.cpu.op_class_0::SimdReduceAlu                0      0.00%     69.05% # Class of committed instruction
system.cpu.op_class_0::SimdReduceCmp                0      0.00%     69.05% # Class of committed instruction
system.cpu.op_class_0::SimdFloatReduceAdd            0      0.00%     69.05% # Class of committed instruction
system.cpu.op_class_0::SimdFloatReduceCmp            0      0.00%     69.05% # Class of committed instruction
system.cpu.op_class_0::SimdAes                      0      0.00%     69.05% # Class of committed instruction
system.cpu.op_class_0::SimdAesMix                   0      0.00%     69.05% # Class of committed instruction
system.cpu.op_class_0::SimdSha1Hash                 0      0.00%     69.05% # Class of committed instruction
system.cpu.op_class_0::SimdSha1Hash2                0      0.00%     69.05% # Class of committed instruction
system.cpu.op_class_0::SimdSha256Hash               0      0.00%     69.05% # Class of committed instruction
system.cpu.op_class_0::SimdSha256Hash2              0      0.00%     69.05% # Class of committed instruction
system.cpu.op_class_0::SimdShaSigma2                0      0.00%     69.05% # Class of committed instruction
system.cpu.op_class_0::SimdShaSigma3                0      0.00%     69.05% # Class of committed instruction
system.cpu.op_class_0::SimdPredAlu                  0      0.00%     69.05% # Class of committed instruction
system.cpu.op_class_0::MemRead                   2478     15.70%     84.75% # Class of committed instruction
system.cpu.op_class_0::MemWrite                  2406     15.25%    100.00% # Class of committed instruction
system.cpu.op_class_0::FloatMemRead                 0      0.00%    100.00% # Class of committed instruction
system.cpu.op_class_0::FloatMemWrite                0      0.00%    100.00% # Class of committed instruction
system.cpu.op_class_0::IprAccess                    0      0.00%    100.00% # Class of committed instruction
system.cpu.op_class_0::InstPrefetch                 0      0.00%    100.00% # Class of committed instruction
system.cpu.op_class_0::total                    15779                       # Class of committed instruction
system.cpu.tickCycles                           23418                       # Number of cycles that the object actually ticked
system.cpu.workload.numSyscalls                    10                       # Number of system calls
system.membus.snoop_filter.hit_multi_requests            4                       # Number of requests hitting in the snoop filter with multiple (>1) holders of the requested data.
system.membus.snoop_filter.hit_multi_snoops            0                       # Number of snoops hitting in the snoop filter with multiple (>1) holders of the requested data.
system.membus.snoop_filter.hit_single_requests          130                       # Number of requests hitting in the snoop filter with a single holder of the requested data.
system.membus.snoop_filter.hit_single_snoops            0                       # Number of snoops hitting in the snoop filter with a single holder of the requested data.
system.membus.snoop_filter.tot_requests           752                       # Total number of requests made to the snoop filter.
system.membus.snoop_filter.tot_snoops               0                       # Total number of snoops made to the snoop filter.
system.membus.pwrStateResidencyTicks::UNDEFINED     30163000                       # Cumulative time (in ticks) in various power states
system.membus.trans_dist::ReadResp                523                       # Transaction distribution
system.membus.trans_dist::WritebackClean           94                       # Transaction distribution
system.membus.trans_dist::CleanEvict                2                       # Transaction distribution
system.membus.trans_dist::ReadExReq                70                       # Transaction distribution
system.membus.trans_dist::ReadExResp               70                       # Transaction distribution
system.membus.trans_dist::ReadCleanReq            413                       # Transaction distribution
system.membus.trans_dist::ReadSharedReq           110                       # Transaction distribution
system.membus.pkt_count_system.cpu.icache.mem_side::system.mem_ctrls.port          920                       # Packet count per connected master and slave (bytes)
system.membus.pkt_count_system.cpu.dcache.mem_side::system.mem_ctrls.port          362                       # Packet count per connected master and slave (bytes)
system.membus.pkt_count::total                   1282                       # Packet count per connected master and slave (bytes)
system.membus.pkt_size_system.cpu.icache.mem_side::system.mem_ctrls.port        32448                       # Cumulative packet size per connected master and slave (bytes)
system.membus.pkt_size_system.cpu.dcache.mem_side::system.mem_ctrls.port        11520                       # Cumulative packet size per connected master and slave (bytes)
system.membus.pkt_size::total                   43968                       # Cumulative packet size per connected master and slave (bytes)
system.membus.snoops                                0                       # Total snoops (count)
system.membus.snoopTraffic                          0                       # Total snoop traffic (bytes)
system.membus.snoop_fanout::samples               655                       # Request fanout histogram
system.membus.snoop_fanout::mean             0.056489                       # Request fanout histogram
system.membus.snoop_fanout::stdev            0.231039                       # Request fanout histogram
system.membus.snoop_fanout::underflows              0      0.00%      0.00% # Request fanout histogram
system.membus.snoop_fanout::0                     618     94.35%     94.35% # Request fanout histogram
system.membus.snoop_fanout::1                      37      5.65%    100.00% # Request fanout histogram
system.membus.snoop_fanout::2                       0      0.00%    100.00% # Request fanout histogram
system.membus.snoop_fanout::overflows               0      0.00%    100.00% # Request fanout histogram
system.membus.snoop_fanout::min_value               0                       # Request fanout histogram
system.membus.snoop_fanout::max_value               1                       # Request fanout histogram
system.membus.snoop_fanout::total                 655                       # Request fanout histogram
system.membus.reqLayer0.occupancy             1240852                       # Layer occupancy (ticks)
system.membus.reqLayer0.utilization               4.1                       # Layer utilization (%)
system.membus.respLayer1.occupancy            2065000                       # Layer occupancy (ticks)
system.membus.respLayer1.utilization              6.8                       # Layer utilization (%)
system.membus.respLayer2.occupancy             900000                       # Layer occupancy (ticks)
system.membus.respLayer2.utilization              3.0                       # Layer utilization (%)
system.voltage_domain.voltage                       1                       # Voltage in Volts
system.clk_domain.clock                          1000                       # Clock period in ticks
system.cpu_voltage_domain.voltage                   1                       # Voltage in Volts
system.mem_ctrls.pwrStateResidencyTicks::UNDEFINED     30163000                       # Cumulative time (in ticks) in various power states
system.mem_ctrls.bytes_read::.cpu.inst          26432                       # Number of bytes read from this memory
system.mem_ctrls.bytes_read::.cpu.data          11520                       # Number of bytes read from this memory
system.mem_ctrls.bytes_read::total              37952                       # Number of bytes read from this memory
system.mem_ctrls.bytes_inst_read::.cpu.inst        26432                       # Number of instructions bytes read from this memory
system.mem_ctrls.bytes_inst_read::total         26432                       # Number of instructions bytes read from this memory
system.mem_ctrls.num_reads::.cpu.inst             413                       # Number of read requests responded to by this memory
system.mem_ctrls.num_reads::.cpu.data             180                       # Number of read requests responded to by this memory
system.mem_ctrls.num_reads::total                 593                       # Number of read requests responded to by this memory
system.mem_ctrls.bw_read::.cpu.inst         876305407                       # Total read bandwidth from this memory (bytes/s)
system.mem_ctrls.bw_read::.cpu.data         381924875                       # Total read bandwidth from this memory (bytes/s)
system.mem_ctrls.bw_read::total            1258230282                       # Total read bandwidth from this memory (bytes/s)
system.mem_ctrls.bw_inst_read::.cpu.inst    876305407                       # Instruction read bandwidth from this memory (bytes/s)
system.mem_ctrls.bw_inst_read::total        876305407                       # Instruction read bandwidth from this memory (bytes/s)
system.mem_ctrls.bw_total::.cpu.inst        876305407                       # Total bandwidth to/from this memory (bytes/s)
system.mem_ctrls.bw_total::.cpu.data        381924875                       # Total bandwidth to/from this memory (bytes/s)
system.mem_ctrls.bw_total::total           1258230282                       # Total bandwidth to/from this memory (bytes/s)
system.cpu_clk_domain.clock                       500                       # Clock period in ticks
system.cpu.pwrStateResidencyTicks::ON        30163000                       # Cumulative time (in ticks) in various power states
system.cpu.icache.pwrStateResidencyTicks::UNDEFINED     30163000                       # Cumulative time (in ticks) in various power states
system.cpu.icache.demand_hits::.cpu.inst         5177                       # number of demand (read+write) hits
system.cpu.icache.demand_hits::total             5177                       # number of demand (read+write) hits
system.cpu.icache.overall_hits::.cpu.inst         5177                       # number of overall hits
system.cpu.icache.overall_hits::total            5177                       # number of overall hits
system.cpu.icache.demand_misses::.cpu.inst          413                       # number of demand (read+write) misses
system.cpu.icache.demand_misses::total            413                       # number of demand (read+write) misses
system.cpu.icache.overall_misses::.cpu.inst          413                       # number of overall misses
system.cpu.icache.overall_misses::total           413                       # number of overall misses
system.cpu.icache.demand_miss_latency::.cpu.inst     17589000                       # number of demand (read+write) miss cycles
system.cpu.icache.demand_miss_latency::total     17589000                       # number of demand (read+write) miss cycles
system.cpu.icache.overall_miss_latency::.cpu.inst     17589000                       # number of overall miss cycles
system.cpu.icache.overall_miss_latency::total     17589000                       # number of overall miss cycles
system.cpu.icache.demand_accesses::.cpu.inst         5590                       # number of demand (read+write) accesses
system.cpu.icache.demand_accesses::total         5590                       # number of demand (read+write) accesses
system.cpu.icache.overall_accesses::.cpu.inst         5590                       # number of overall (read+write) accesses
system.cpu.icache.overall_accesses::total         5590                       # number of overall (read+write) accesses
system.cpu.icache.demand_miss_rate::.cpu.inst     0.073882                       # miss rate for demand accesses
system.cpu.icache.demand_miss_rate::total     0.073882                       # miss rate for demand accesses
system.cpu.icache.overall_miss_rate::.cpu.inst     0.073882                       # miss rate for overall accesses
system.cpu.icache.overall_miss_rate::total     0.073882                       # miss rate for overall accesses
system.cpu.icache.demand_avg_miss_latency::.cpu.inst 42588.377724                       # average overall miss latency
system.cpu.icache.demand_avg_miss_latency::total 42588.377724                       # average overall miss latency
system.cpu.icache.overall_avg_miss_latency::.cpu.inst 42588.377724                       # average overall miss latency
system.cpu.icache.overall_avg_miss_latency::total 42588.377724                       # average overall miss latency
system.cpu.icache.blocked_cycles::no_mshrs            0                       # number of cycles access was blocked
system.cpu.icache.blocked_cycles::no_targets            0                       # number of cycles access was blocked
system.cpu.icache.blocked::no_mshrs                 0                       # number of cycles access was blocked
system.cpu.icache.blocked::no_targets               0                       # number of cycles access was blocked
system.cpu.icache.avg_blocked_cycles::no_mshrs          nan                       # average number of cycles each access was blocked
system.cpu.icache.avg_blocked_cycles::no_targets          nan                       # average number of cycles each access was blocked
system.cpu.icache.writebacks::.writebacks           94                       # number of writebacks
system.cpu.icache.writebacks::total                94                       # number of writebacks
system.cpu.icache.demand_mshr_misses::.cpu.inst          413                       # number of demand (read+write) MSHR misses
system.cpu.icache.demand_mshr_misses::total          413                       # number of demand (read+write) MSHR misses
system.cpu.icache.overall_mshr_misses::.cpu.inst          413                       # number of overall MSHR misses
system.cpu.icache.overall_mshr_misses::total          413                       # number of overall MSHR misses
system.cpu.icache.demand_mshr_miss_latency::.cpu.inst     17176000                       # number of demand (read+write) MSHR miss cycles
system.cpu.icache.demand_mshr_miss_latency::total     17176000                       # number of demand (read+write) MSHR miss cycles
system.cpu.icache.overall_mshr_miss_latency::.cpu.inst     17176000                       # number of overall MSHR miss cycles
system.cpu.icache.overall_mshr_miss_latency::total     17176000                       # number of overall MSHR miss cycles
system.cpu.icache.demand_mshr_miss_rate::.cpu.inst     0.073882                       # mshr miss rate for demand accesses
system.cpu.icache.demand_mshr_miss_rate::total     0.073882                       # mshr miss rate for demand accesses
system.cpu.icache.overall_mshr_miss_rate::.cpu.inst     0.073882                       # mshr miss rate for overall accesses
system.cpu.icache.overall_mshr_miss_rate::total     0.073882                       # mshr miss rate for overall accesses
system.cpu.icache.demand_avg_mshr_miss_latency::.cpu.inst 41588.377724                       # average overall mshr miss latency
system.cpu.icache.demand_avg_mshr_miss_latency::total 41588.377724                       # average overall mshr miss latency
system.cpu.icache.overall_avg_mshr_miss_latency::.cpu.inst 41588.377724                       # average overall mshr miss latency
system.cpu.icache.overall_avg_mshr_miss_latency::total 41588.377724                       # average overall mshr miss latency
system.cpu.icache.replacements                     94                       # number of replacements
system.cpu.icache.ReadReq_hits::.cpu.inst         5177                       # number of ReadReq hits
system.cpu.icache.ReadReq_hits::total            5177                       # number of ReadReq hits
system.cpu.icache.ReadReq_misses::.cpu.inst          413                       # number of ReadReq misses
system.cpu.icache.ReadReq_misses::total           413                       # number of ReadReq misses
system.cpu.icache.ReadReq_miss_latency::.cpu.inst     17589000                       # number of ReadReq miss cycles
system.cpu.icache.ReadReq_miss_latency::total     17589000                       # number of ReadReq miss cycles
system.cpu.icache.ReadReq_accesses::.cpu.inst         5590                       # number of ReadReq accesses(hits+misses)
system.cpu.icache.ReadReq_accesses::total         5590                       # number of ReadReq accesses(hits+misses)
system.cpu.icache.ReadReq_miss_rate::.cpu.inst     0.073882                       # miss rate for ReadReq accesses
system.cpu.icache.ReadReq_miss_rate::total     0.073882                       # miss rate for ReadReq accesses
system.cpu.icache.ReadReq_avg_miss_latency::.cpu.inst 42588.377724                       # average ReadReq miss latency
system.cpu.icache.ReadReq_avg_miss_latency::total 42588.377724                       # average ReadReq miss latency
system.cpu.icache.ReadReq_mshr_misses::.cpu.inst          413                       # number of ReadReq MSHR misses
system.cpu.icache.ReadReq_mshr_misses::total          413                       # number of ReadReq MSHR misses
system.cpu.icache.ReadReq_mshr_miss_latency::.cpu.inst     17176000                       # number of ReadReq MSHR miss cycles
system.cpu.icache.ReadReq_mshr_miss_latency::total     17176000                       # number of ReadReq MSHR miss cycles
system.cpu.icache.ReadReq_mshr_miss_rate::.cpu.inst     0.073882                       # mshr miss rate for ReadReq accesses
system.cpu.icache.ReadReq_mshr_miss_rate::total     0.073882                       # mshr miss rate for ReadReq accesses
system.cpu.icache.ReadReq_avg_mshr_miss_latency::.cpu.inst 41588.377724                       # average ReadReq mshr miss latency
system.cpu.icache.ReadReq_avg_mshr_miss_latency::total 41588.377724                       # average ReadReq mshr miss latency
system.cpu.icache.tags.pwrStateResidencyTicks::UNDEFINED     30163000                       # Cumulative time (in ticks) in various power states
system.cpu.icache.tags.tagsinuse           184.236354                       # Cycle average of tags in use
system.cpu.icache.tags.total_refs                5590                       # Total number of references to valid blocks.
system.cpu.icache.tags.sampled_refs               413                       # Sample count of references to valid blocks.
system.cpu.icache.tags.avg_refs             13.535109                       # Average number of references to valid blocks.
system.cpu.icache.tags.warmup_cycle             42000                       # Cycle when the warmup percentage was hit.
system.cpu.icache.tags.occ_blocks::.cpu.inst   184.236354                       # Average occupied blocks per requestor
system.cpu.icache.tags.occ_percent::.cpu.inst     0.359837                       # Average percentage of cache occupancy
system.cpu.icache.tags.occ_percent::total     0.359837                       # Average percentage of cache occupancy
system.cpu.icache.tags.occ_task_id_blocks::1024          319                       # Occupied blocks per task id
system.cpu.icache.tags.age_task_id_blocks_1024::0          146                       # Occupied blocks per task id
system.cpu.icache.tags.age_task_id_blocks_1024::1          173                       # Occupied blocks per task id
system.cpu.icache.tags.occ_task_id_percent::1024     0.623047                       # Percentage of cache occupancy per task id
system.cpu.icache.tags.tag_accesses             11593                       # Number of tag accesses
system.cpu.icache.tags.data_accesses            11593                       # Number of data accesses
system.cpu.dtb.walker.pwrStateResidencyTicks::UNDEFINED     30163000                       # Cumulative time (in ticks) in various power states
system.cpu.dtb.stage2_mmu.stage2_tlb.walker.pwrStateResidencyTicks::UNDEFINED     30163000                       # Cumulative time (in ticks) in various power states
system.cpu.dcache.pwrStateResidencyTicks::UNDEFINED     30163000                       # Cumulative time (in ticks) in various power states
system.cpu.dcache.demand_hits::.cpu.data         4631                       # number of demand (read+write) hits
system.cpu.dcache.demand_hits::total             4631                       # number of demand (read+write) hits
system.cpu.dcache.overall_hits::.cpu.data         4652                       # number of overall hits
system.cpu.dcache.overall_hits::total            4652                       # number of overall hits
system.cpu.dcache.demand_misses::.cpu.data          225                       # number of demand (read+write) misses
system.cpu.dcache.demand_misses::total            225                       # number of demand (read+write) misses
system.cpu.dcache.overall_misses::.cpu.data          234                       # number of overall misses
system.cpu.dcache.overall_misses::total           234                       # number of overall misses
system.cpu.dcache.demand_miss_latency::.cpu.data      9799500                       # number of demand (read+write) miss cycles
system.cpu.dcache.demand_miss_latency::total      9799500                       # number of demand (read+write) miss cycles
system.cpu.dcache.overall_miss_latency::.cpu.data      9799500                       # number of overall miss cycles
system.cpu.dcache.overall_miss_latency::total      9799500                       # number of overall miss cycles
system.cpu.dcache.demand_accesses::.cpu.data         4856                       # number of demand (read+write) accesses
system.cpu.dcache.demand_accesses::total         4856                       # number of demand (read+write) accesses
system.cpu.dcache.overall_accesses::.cpu.data         4886                       # number of overall (read+write) accesses
system.cpu.dcache.overall_accesses::total         4886                       # number of overall (read+write) accesses
system.cpu.dcache.demand_miss_rate::.cpu.data     0.046334                       # miss rate for demand accesses
system.cpu.dcache.demand_miss_rate::total     0.046334                       # miss rate for demand accesses
system.cpu.dcache.overall_miss_rate::.cpu.data     0.047892                       # miss rate for overall accesses
system.cpu.dcache.overall_miss_rate::total     0.047892                       # miss rate for overall accesses
system.cpu.dcache.demand_avg_miss_latency::.cpu.data 43553.333333                       # average overall miss latency
system.cpu.dcache.demand_avg_miss_latency::total 43553.333333                       # average overall miss latency
system.cpu.dcache.overall_avg_miss_latency::.cpu.data 41878.205128                       # average overall miss latency
system.cpu.dcache.overall_avg_miss_latency::total 41878.205128                       # average overall miss latency
system.cpu.dcache.blocked_cycles::no_mshrs            0                       # number of cycles access was blocked
system.cpu.dcache.blocked_cycles::no_targets            0                       # number of cycles access was blocked
system.cpu.dcache.blocked::no_mshrs                 0                       # number of cycles access was blocked
system.cpu.dcache.blocked::no_targets               0                       # number of cycles access was blocked
system.cpu.dcache.avg_blocked_cycles::no_mshrs          nan                       # average number of cycles each access was blocked
system.cpu.dcache.avg_blocked_cycles::no_targets          nan                       # average number of cycles each access was blocked
system.cpu.dcache.demand_mshr_hits::.cpu.data           53                       # number of demand (read+write) MSHR hits
system.cpu.dcache.demand_mshr_hits::total           53                       # number of demand (read+write) MSHR hits
system.cpu.dcache.overall_mshr_hits::.cpu.data           53                       # number of overall MSHR hits
system.cpu.dcache.overall_mshr_hits::total           53                       # number of overall MSHR hits
system.cpu.dcache.demand_mshr_misses::.cpu.data          172                       # number of demand (read+write) MSHR misses
system.cpu.dcache.demand_mshr_misses::total          172                       # number of demand (read+write) MSHR misses
system.cpu.dcache.overall_mshr_misses::.cpu.data          180                       # number of overall MSHR misses
system.cpu.dcache.overall_mshr_misses::total          180                       # number of overall MSHR misses
system.cpu.dcache.demand_mshr_miss_latency::.cpu.data      7278000                       # number of demand (read+write) MSHR miss cycles
system.cpu.dcache.demand_mshr_miss_latency::total      7278000                       # number of demand (read+write) MSHR miss cycles
system.cpu.dcache.overall_mshr_miss_latency::.cpu.data      7615500                       # number of overall MSHR miss cycles
system.cpu.dcache.overall_mshr_miss_latency::total      7615500                       # number of overall MSHR miss cycles
system.cpu.dcache.demand_mshr_miss_rate::.cpu.data     0.035420                       # mshr miss rate for demand accesses
system.cpu.dcache.demand_mshr_miss_rate::total     0.035420                       # mshr miss rate for demand accesses
system.cpu.dcache.overall_mshr_miss_rate::.cpu.data     0.036840                       # mshr miss rate for overall accesses
system.cpu.dcache.overall_mshr_miss_rate::total     0.036840                       # mshr miss rate for overall accesses
system.cpu.dcache.demand_avg_mshr_miss_latency::.cpu.data 42313.953488                       # average overall mshr miss latency
system.cpu.dcache.demand_avg_mshr_miss_latency::total 42313.953488                       # average overall mshr miss latency
system.cpu.dcache.overall_avg_mshr_miss_latency::.cpu.data 42308.333333                       # average overall mshr miss latency
system.cpu.dcache.overall_avg_mshr_miss_latency::total 42308.333333                       # average overall mshr miss latency
system.cpu.dcache.replacements                      2                       # number of replacements
system.cpu.dcache.ReadReq_hits::.cpu.data         2395                       # number of ReadReq hits
system.cpu.dcache.ReadReq_hits::total            2395                       # number of ReadReq hits
system.cpu.dcache.ReadReq_misses::.cpu.data          106                       # number of ReadReq misses
system.cpu.dcache.ReadReq_misses::total           106                       # number of ReadReq misses
system.cpu.dcache.ReadReq_miss_latency::.cpu.data      4617000                       # number of ReadReq miss cycles
system.cpu.dcache.ReadReq_miss_latency::total      4617000                       # number of ReadReq miss cycles
system.cpu.dcache.ReadReq_accesses::.cpu.data         2501                       # number of ReadReq accesses(hits+misses)
system.cpu.dcache.ReadReq_accesses::total         2501                       # number of ReadReq accesses(hits+misses)
system.cpu.dcache.ReadReq_miss_rate::.cpu.data     0.042383                       # miss rate for ReadReq accesses
system.cpu.dcache.ReadReq_miss_rate::total     0.042383                       # miss rate for ReadReq accesses
system.cpu.dcache.ReadReq_avg_miss_latency::.cpu.data 43556.603774                       # average ReadReq miss latency
system.cpu.dcache.ReadReq_avg_miss_latency::total 43556.603774                       # average ReadReq miss latency
system.cpu.dcache.ReadReq_mshr_hits::.cpu.data            4                       # number of ReadReq MSHR hits
system.cpu.dcache.ReadReq_mshr_hits::total            4                       # number of ReadReq MSHR hits
system.cpu.dcache.ReadReq_mshr_misses::.cpu.data          102                       # number of ReadReq MSHR misses
system.cpu.dcache.ReadReq_mshr_misses::total          102                       # number of ReadReq MSHR misses
system.cpu.dcache.ReadReq_mshr_miss_latency::.cpu.data      4332000                       # number of ReadReq MSHR miss cycles
system.cpu.dcache.ReadReq_mshr_miss_latency::total      4332000                       # number of ReadReq MSHR miss cycles
system.cpu.dcache.ReadReq_mshr_miss_rate::.cpu.data     0.040784                       # mshr miss rate for ReadReq accesses
system.cpu.dcache.ReadReq_mshr_miss_rate::total     0.040784                       # mshr miss rate for ReadReq accesses
system.cpu.dcache.ReadReq_avg_mshr_miss_latency::.cpu.data 42470.588235                       # average ReadReq mshr miss latency
system.cpu.dcache.ReadReq_avg_mshr_miss_latency::total 42470.588235                       # average ReadReq mshr miss latency
system.cpu.dcache.WriteReq_hits::.cpu.data         2236                       # number of WriteReq hits
system.cpu.dcache.WriteReq_hits::total           2236                       # number of WriteReq hits
system.cpu.dcache.WriteReq_misses::.cpu.data          119                       # number of WriteReq misses
system.cpu.dcache.WriteReq_misses::total          119                       # number of WriteReq misses
system.cpu.dcache.WriteReq_miss_latency::.cpu.data      5182500                       # number of WriteReq miss cycles
system.cpu.dcache.WriteReq_miss_latency::total      5182500                       # number of WriteReq miss cycles
system.cpu.dcache.WriteReq_accesses::.cpu.data         2355                       # number of WriteReq accesses(hits+misses)
system.cpu.dcache.WriteReq_accesses::total         2355                       # number of WriteReq accesses(hits+misses)
system.cpu.dcache.WriteReq_miss_rate::.cpu.data     0.050531                       # miss rate for WriteReq accesses
system.cpu.dcache.WriteReq_miss_rate::total     0.050531                       # miss rate for WriteReq accesses
system.cpu.dcache.WriteReq_avg_miss_latency::.cpu.data 43550.420168                       # average WriteReq miss latency
system.cpu.dcache.WriteReq_avg_miss_latency::total 43550.420168                       # average WriteReq miss latency
system.cpu.dcache.WriteReq_mshr_hits::.cpu.data           49                       # number of WriteReq MSHR hits
system.cpu.dcache.WriteReq_mshr_hits::total           49                       # number of WriteReq MSHR hits
system.cpu.dcache.WriteReq_mshr_misses::.cpu.data           70                       # number of WriteReq MSHR misses
system.cpu.dcache.WriteReq_mshr_misses::total           70                       # number of WriteReq MSHR misses
system.cpu.dcache.WriteReq_mshr_miss_latency::.cpu.data      2946000                       # number of WriteReq MSHR miss cycles
system.cpu.dcache.WriteReq_mshr_miss_latency::total      2946000                       # number of WriteReq MSHR miss cycles
system.cpu.dcache.WriteReq_mshr_miss_rate::.cpu.data     0.029724                       # mshr miss rate for WriteReq accesses
system.cpu.dcache.WriteReq_mshr_miss_rate::total     0.029724                       # mshr miss rate for WriteReq accesses
system.cpu.dcache.WriteReq_avg_mshr_miss_latency::.cpu.data 42085.714286                       # average WriteReq mshr miss latency
system.cpu.dcache.WriteReq_avg_mshr_miss_latency::total 42085.714286                       # average WriteReq mshr miss latency
system.cpu.dcache.SoftPFReq_hits::.cpu.data           21                       # number of SoftPFReq hits
system.cpu.dcache.SoftPFReq_hits::total            21                       # number of SoftPFReq hits
system.cpu.dcache.SoftPFReq_misses::.cpu.data            9                       # number of SoftPFReq misses
system.cpu.dcache.SoftPFReq_misses::total            9                       # number of SoftPFReq misses
system.cpu.dcache.SoftPFReq_accesses::.cpu.data           30                       # number of SoftPFReq accesses(hits+misses)
system.cpu.dcache.SoftPFReq_accesses::total           30                       # number of SoftPFReq accesses(hits+misses)
system.cpu.dcache.SoftPFReq_miss_rate::.cpu.data     0.300000                       # miss rate for SoftPFReq accesses
system.cpu.dcache.SoftPFReq_miss_rate::total     0.300000                       # miss rate for SoftPFReq accesses
system.cpu.dcache.SoftPFReq_mshr_misses::.cpu.data            8                       # number of SoftPFReq MSHR misses
system.cpu.dcache.SoftPFReq_mshr_misses::total            8                       # number of SoftPFReq MSHR misses
system.cpu.dcache.SoftPFReq_mshr_miss_latency::.cpu.data       337500                       # number of SoftPFReq MSHR miss cycles
system.cpu.dcache.SoftPFReq_mshr_miss_latency::total       337500                       # number of SoftPFReq MSHR miss cycles
system.cpu.dcache.SoftPFReq_mshr_miss_rate::.cpu.data     0.266667                       # mshr miss rate for SoftPFReq accesses
system.cpu.dcache.SoftPFReq_mshr_miss_rate::total     0.266667                       # mshr miss rate for SoftPFReq accesses
system.cpu.dcache.SoftPFReq_avg_mshr_miss_latency::.cpu.data 42187.500000                       # average SoftPFReq mshr miss latency
system.cpu.dcache.SoftPFReq_avg_mshr_miss_latency::total 42187.500000                       # average SoftPFReq mshr miss latency
system.cpu.dcache.LoadLockedReq_hits::.cpu.data           18                       # number of LoadLockedReq hits
system.cpu.dcache.LoadLockedReq_hits::total           18                       # number of LoadLockedReq hits
system.cpu.dcache.LoadLockedReq_accesses::.cpu.data           18                       # number of LoadLockedReq accesses(hits+misses)
system.cpu.dcache.LoadLockedReq_accesses::total           18                       # number of LoadLockedReq accesses(hits+misses)
system.cpu.dcache.StoreCondReq_hits::.cpu.data           18                       # number of StoreCondReq hits
system.cpu.dcache.StoreCondReq_hits::total           18                       # number of StoreCondReq hits
system.cpu.dcache.StoreCondReq_accesses::.cpu.data           18                       # number of StoreCondReq accesses(hits+misses)
system.cpu.dcache.StoreCondReq_accesses::total           18                       # number of StoreCondReq accesses(hits+misses)
system.cpu.dcache.tags.pwrStateResidencyTicks::UNDEFINED     30163000                       # Cumulative time (in ticks) in various power states
system.cpu.dcache.tags.tagsinuse           105.217487                       # Cycle average of tags in use
system.cpu.dcache.tags.total_refs                4868                       # Total number of references to valid blocks.
system.cpu.dcache.tags.sampled_refs               180                       # Sample count of references to valid blocks.
system.cpu.dcache.tags.avg_refs             27.044444                       # Average number of references to valid blocks.
system.cpu.dcache.tags.warmup_cycle             90000                       # Cycle when the warmup percentage was hit.
system.cpu.dcache.tags.occ_blocks::.cpu.data   105.217487                       # Average occupied blocks per requestor
system.cpu.dcache.tags.occ_percent::.cpu.data     0.102751                       # Average percentage of cache occupancy
system.cpu.dcache.tags.occ_percent::total     0.102751                       # Average percentage of cache occupancy
system.cpu.dcache.tags.occ_task_id_blocks::1024          178                       # Occupied blocks per task id
system.cpu.dcache.tags.age_task_id_blocks_1024::0           43                       # Occupied blocks per task id
system.cpu.dcache.tags.age_task_id_blocks_1024::1          135                       # Occupied blocks per task id
system.cpu.dcache.tags.occ_task_id_percent::1024     0.173828                       # Percentage of cache occupancy per task id
system.cpu.dcache.tags.tag_accesses             10024                       # Number of tag accesses
system.cpu.dcache.tags.data_accesses            10024                       # Number of data accesses
system.cpu.itb.walker.pwrStateResidencyTicks::UNDEFINED     30163000                       # Cumulative time (in ticks) in various power states
system.cpu.itb.stage2_mmu.stage2_tlb.walker.pwrStateResidencyTicks::UNDEFINED     30163000                       # Cumulative time (in ticks) in various power states

---------- End Simulation Statistics   ----------
