
---------- Begin Simulation Statistics ----------
final_tick                               265025944000                       # Number of ticks from beginning of simulation (restored from checkpoints and never reset)
host_inst_rate                                 583515                       # Simulator instruction rate (inst/s)
host_mem_usage                                 688036                       # Number of bytes of host memory used
host_op_rate                                   583536                       # Simulator op (including micro ops) rate (op/s)
host_seconds                                   171.38                       # Real time elapsed on the host
host_tick_rate                             1546466565                       # Simulator tick rate (ticks/s)
sim_freq                                 1000000000000                       # Frequency of simulated ticks
sim_insts                                   100000000                       # Number of instructions simulated
sim_ops                                     100003637                       # Number of ops (including micro ops) simulated
sim_seconds                                  0.265026                       # Number of seconds simulated
sim_ticks                                265025944000                       # Number of ticks simulated
system.cpu.branchPred.BTBCorrect                    0                       # Number of correct BTB predictions (this stat may not work properly.
system.cpu.branchPred.BTBHitPct             99.524814                       # BTB Hit Percentage
system.cpu.branchPred.BTBHits                  596915                       # Number of BTB hits
system.cpu.branchPred.BTBLookups               599765                       # Number of BTB lookups
system.cpu.branchPred.RASInCorrect                  7                       # Number of incorrect RAS predictions.
system.cpu.branchPred.condIncorrect               868                       # Number of conditional branches incorrect
system.cpu.branchPred.condPredicted            599880                       # Number of conditional branches predicted
system.cpu.branchPred.indirectHits                164                       # Number of indirect target hits.
system.cpu.branchPred.indirectLookups             377                       # Number of indirect predictor lookups.
system.cpu.branchPred.indirectMisses              213                       # Number of indirect misses.
system.cpu.branchPred.lookups                  602009                       # Number of BP lookups
system.cpu.branchPred.usedRAS                     600                       # Number of times the RAS was used to get a target.
system.cpu.branchPredindirectMispredicted          111                       # Number of mispredicted indirect branches.
system.cpu.committedInsts                   100000000                       # Number of instructions committed
system.cpu.committedOps                     100003637                       # Number of ops (including micro ops) committed
system.cpu.cpi                               2.650259                       # CPI: cycles per instruction
system.cpu.discardedOps                          2695                       # Number of ops (including micro ops) which were discarded before commit
system.cpu.dtb.accesses                             0                       # DTB accesses
system.cpu.dtb.align_faults                         0                       # Number of TLB faults due to alignment restrictions
system.cpu.dtb.domain_faults                        0                       # Number of TLB faults due to domain restrictions
system.cpu.dtb.flush_entries                        0                       # Number of entries that have been flushed from TLB
system.cpu.dtb.flush_tlb                            0                       # Number of times complete TLB was flushed
system.cpu.dtb.flush_tlb_asid                       0                       # Number of times TLB was flushed by ASID
system.cpu.dtb.flush_tlb_mva                        0                       # Number of times TLB was flushed by MVA
system.cpu.dtb.flush_tlb_mva_asid                   0                       # Number of times TLB was flushed by MVA & ASID
system.cpu.dtb.hits                                 0                       # DTB hits
system.cpu.dtb.inst_accesses                        0                       # ITB inst accesses
system.cpu.dtb.inst_hits                            0                       # ITB inst hits
system.cpu.dtb.inst_misses                          0                       # ITB inst misses
system.cpu.dtb.misses                               0                       # DTB misses
system.cpu.dtb.perms_faults                         0                       # Number of TLB faults due to permissions restrictions
system.cpu.dtb.prefetch_faults                      0                       # Number of TLB faults due to prefetch
system.cpu.dtb.read_accesses                        0                       # DTB read accesses
system.cpu.dtb.read_hits                            0                       # DTB read hits
system.cpu.dtb.read_misses                          0                       # DTB read misses
system.cpu.dtb.stage2_mmu.stage2_tlb.accesses            0                       # DTB accesses
system.cpu.dtb.stage2_mmu.stage2_tlb.align_faults            0                       # Number of TLB faults due to alignment restrictions
system.cpu.dtb.stage2_mmu.stage2_tlb.domain_faults            0                       # Number of TLB faults due to domain restrictions
system.cpu.dtb.stage2_mmu.stage2_tlb.flush_entries            0                       # Number of entries that have been flushed from TLB
system.cpu.dtb.stage2_mmu.stage2_tlb.flush_tlb            0                       # Number of times complete TLB was flushed
system.cpu.dtb.stage2_mmu.stage2_tlb.flush_tlb_asid            0                       # Number of times TLB was flushed by ASID
system.cpu.dtb.stage2_mmu.stage2_tlb.flush_tlb_mva            0                       # Number of times TLB was flushed by MVA
system.cpu.dtb.stage2_mmu.stage2_tlb.flush_tlb_mva_asid            0                       # Number of times TLB was flushed by MVA & ASID
system.cpu.dtb.stage2_mmu.stage2_tlb.hits            0                       # DTB hits
system.cpu.dtb.stage2_mmu.stage2_tlb.inst_accesses            0                       # ITB inst accesses
system.cpu.dtb.stage2_mmu.stage2_tlb.inst_hits            0                       # ITB inst hits
system.cpu.dtb.stage2_mmu.stage2_tlb.inst_misses            0                       # ITB inst misses
system.cpu.dtb.stage2_mmu.stage2_tlb.misses            0                       # DTB misses
system.cpu.dtb.stage2_mmu.stage2_tlb.perms_faults            0                       # Number of TLB faults due to permissions restrictions
system.cpu.dtb.stage2_mmu.stage2_tlb.prefetch_faults            0                       # Number of TLB faults due to prefetch
system.cpu.dtb.stage2_mmu.stage2_tlb.read_accesses            0                       # DTB read accesses
system.cpu.dtb.stage2_mmu.stage2_tlb.read_hits            0                       # DTB read hits
system.cpu.dtb.stage2_mmu.stage2_tlb.read_misses            0                       # DTB read misses
system.cpu.dtb.stage2_mmu.stage2_tlb.walker.walkRequestOrigin_Requested::Data            0                       # Table walker requests started/completed, data/inst
system.cpu.dtb.stage2_mmu.stage2_tlb.walker.walkRequestOrigin_Requested::Inst            0                       # Table walker requests started/completed, data/inst
system.cpu.dtb.stage2_mmu.stage2_tlb.walker.walkRequestOrigin_Requested::total            0                       # Table walker requests started/completed, data/inst
system.cpu.dtb.stage2_mmu.stage2_tlb.walker.walkRequestOrigin_Completed::Data            0                       # Table walker requests started/completed, data/inst
system.cpu.dtb.stage2_mmu.stage2_tlb.walker.walkRequestOrigin_Completed::Inst            0                       # Table walker requests started/completed, data/inst
system.cpu.dtb.stage2_mmu.stage2_tlb.walker.walkRequestOrigin_Completed::total            0                       # Table walker requests started/completed, data/inst
system.cpu.dtb.stage2_mmu.stage2_tlb.walker.walkRequestOrigin::total            0                       # Table walker requests started/completed, data/inst
system.cpu.dtb.stage2_mmu.stage2_tlb.walker.walks            0                       # Table walker walks requested
system.cpu.dtb.stage2_mmu.stage2_tlb.write_accesses            0                       # DTB write accesses
system.cpu.dtb.stage2_mmu.stage2_tlb.write_hits            0                       # DTB write hits
system.cpu.dtb.stage2_mmu.stage2_tlb.write_misses            0                       # DTB write misses
system.cpu.dtb.walker.walkRequestOrigin_Requested::Data            0                       # Table walker requests started/completed, data/inst
system.cpu.dtb.walker.walkRequestOrigin_Requested::Inst            0                       # Table walker requests started/completed, data/inst
system.cpu.dtb.walker.walkRequestOrigin_Requested::total            0                       # Table walker requests started/completed, data/inst
system.cpu.dtb.walker.walkRequestOrigin_Completed::Data            0                       # Table walker requests started/completed, data/inst
system.cpu.dtb.walker.walkRequestOrigin_Completed::Inst            0                       # Table walker requests started/completed, data/inst
system.cpu.dtb.walker.walkRequestOrigin_Completed::total            0                       # Table walker requests started/completed, data/inst
system.cpu.dtb.walker.walkRequestOrigin::total            0                       # Table walker requests started/completed, data/inst
system.cpu.dtb.walker.walks                         0                       # Table walker walks requested
system.cpu.dtb.write_accesses                       0                       # DTB write accesses
system.cpu.dtb.write_hits                           0                       # DTB write hits
system.cpu.dtb.write_misses                         0                       # DTB write misses
system.cpu.fetch2.amo_instructions                  0                       # Number of memory atomic instructions successfully decoded
system.cpu.fetch2.fp_instructions                   0                       # Number of floating point instructions successfully decoded
system.cpu.fetch2.int_instructions           49411703                       # Number of integer instructions successfully decoded
system.cpu.fetch2.load_instructions          36901031                       # Number of memory load instructions successfully decoded
system.cpu.fetch2.store_instructions         13094479                       # Number of memory store instructions successfully decoded
system.cpu.fetch2.vec_instructions                  0                       # Number of SIMD instructions successfully decoded
system.cpu.idleCycles                       147684700                       # Total number of cycles that the object has spent stopped
system.cpu.ipc                               0.377322                       # IPC: instructions per cycle
system.cpu.itb.accesses                             0                       # DTB accesses
system.cpu.itb.align_faults                         0                       # Number of TLB faults due to alignment restrictions
system.cpu.itb.domain_faults                        0                       # Number of TLB faults due to domain restrictions
system.cpu.itb.flush_entries                        0                       # Number of entries that have been flushed from TLB
system.cpu.itb.flush_tlb                            0                       # Number of times complete TLB was flushed
system.cpu.itb.flush_tlb_asid                       0                       # Number of times TLB was flushed by ASID
system.cpu.itb.flush_tlb_mva                        0                       # Number of times TLB was flushed by MVA
system.cpu.itb.flush_tlb_mva_asid                   0                       # Number of times TLB was flushed by MVA & ASID
system.cpu.itb.hits                                 0                       # DTB hits
system.cpu.itb.inst_accesses                        0                       # ITB inst accesses
system.cpu.itb.inst_hits                            0                       # ITB inst hits
system.cpu.itb.inst_misses                          0                       # ITB inst misses
system.cpu.itb.misses                               0                       # DTB misses
system.cpu.itb.perms_faults                         0                       # Number of TLB faults due to permissions restrictions
system.cpu.itb.prefetch_faults                      0                       # Number of TLB faults due to prefetch
system.cpu.itb.read_accesses                        0                       # DTB read accesses
system.cpu.itb.read_hits                            0                       # DTB read hits
system.cpu.itb.read_misses                          0                       # DTB read misses
system.cpu.itb.stage2_mmu.stage2_tlb.accesses            0                       # DTB accesses
system.cpu.itb.stage2_mmu.stage2_tlb.align_faults            0                       # Number of TLB faults due to alignment restrictions
system.cpu.itb.stage2_mmu.stage2_tlb.domain_faults            0                       # Number of TLB faults due to domain restrictions
system.cpu.itb.stage2_mmu.stage2_tlb.flush_entries            0                       # Number of entries that have been flushed from TLB
system.cpu.itb.stage2_mmu.stage2_tlb.flush_tlb            0                       # Number of times complete TLB was flushed
system.cpu.itb.stage2_mmu.stage2_tlb.flush_tlb_asid            0                       # Number of times TLB was flushed by ASID
system.cpu.itb.stage2_mmu.stage2_tlb.flush_tlb_mva            0                       # Number of times TLB was flushed by MVA
system.cpu.itb.stage2_mmu.stage2_tlb.flush_tlb_mva_asid            0                       # Number of times TLB was flushed by MVA & ASID
system.cpu.itb.stage2_mmu.stage2_tlb.hits            0                       # DTB hits
system.cpu.itb.stage2_mmu.stage2_tlb.inst_accesses            0                       # ITB inst accesses
system.cpu.itb.stage2_mmu.stage2_tlb.inst_hits            0                       # ITB inst hits
system.cpu.itb.stage2_mmu.stage2_tlb.inst_misses            0                       # ITB inst misses
system.cpu.itb.stage2_mmu.stage2_tlb.misses            0                       # DTB misses
system.cpu.itb.stage2_mmu.stage2_tlb.perms_faults            0                       # Number of TLB faults due to permissions restrictions
system.cpu.itb.stage2_mmu.stage2_tlb.prefetch_faults            0                       # Number of TLB faults due to prefetch
system.cpu.itb.stage2_mmu.stage2_tlb.read_accesses            0                       # DTB read accesses
system.cpu.itb.stage2_mmu.stage2_tlb.read_hits            0                       # DTB read hits
system.cpu.itb.stage2_mmu.stage2_tlb.read_misses            0                       # DTB read misses
system.cpu.itb.stage2_mmu.stage2_tlb.walker.walkRequestOrigin_Requested::Data            0                       # Table walker requests started/completed, data/inst
system.cpu.itb.stage2_mmu.stage2_tlb.walker.walkRequestOrigin_Requested::Inst            0                       # Table walker requests started/completed, data/inst
system.cpu.itb.stage2_mmu.stage2_tlb.walker.walkRequestOrigin_Requested::total            0                       # Table walker requests started/completed, data/inst
system.cpu.itb.stage2_mmu.stage2_tlb.walker.walkRequestOrigin_Completed::Data            0                       # Table walker requests started/completed, data/inst
system.cpu.itb.stage2_mmu.stage2_tlb.walker.walkRequestOrigin_Completed::Inst            0                       # Table walker requests started/completed, data/inst
system.cpu.itb.stage2_mmu.stage2_tlb.walker.walkRequestOrigin_Completed::total            0                       # Table walker requests started/completed, data/inst
system.cpu.itb.stage2_mmu.stage2_tlb.walker.walkRequestOrigin::total            0                       # Table walker requests started/completed, data/inst
system.cpu.itb.stage2_mmu.stage2_tlb.walker.walks            0                       # Table walker walks requested
system.cpu.itb.stage2_mmu.stage2_tlb.write_accesses            0                       # DTB write accesses
system.cpu.itb.stage2_mmu.stage2_tlb.write_hits            0                       # DTB write hits
system.cpu.itb.stage2_mmu.stage2_tlb.write_misses            0                       # DTB write misses
system.cpu.itb.walker.walkRequestOrigin_Requested::Data            0                       # Table walker requests started/completed, data/inst
system.cpu.itb.walker.walkRequestOrigin_Requested::Inst            0                       # Table walker requests started/completed, data/inst
system.cpu.itb.walker.walkRequestOrigin_Requested::total            0                       # Table walker requests started/completed, data/inst
system.cpu.itb.walker.walkRequestOrigin_Completed::Data            0                       # Table walker requests started/completed, data/inst
system.cpu.itb.walker.walkRequestOrigin_Completed::Inst            0                       # Table walker requests started/completed, data/inst
system.cpu.itb.walker.walkRequestOrigin_Completed::total            0                       # Table walker requests started/completed, data/inst
system.cpu.itb.walker.walkRequestOrigin::total            0                       # Table walker requests started/completed, data/inst
system.cpu.itb.walker.walks                         0                       # Table walker walks requested
system.cpu.itb.write_accesses                       0                       # DTB write accesses
system.cpu.itb.write_hits                           0                       # DTB write hits
system.cpu.itb.write_misses                         0                       # DTB write misses
system.cpu.numCycles                        265025944                       # number of cpu cycles simulated
system.cpu.numFetchSuspends                         0                       # Number of times Execute suspended instruction fetching
system.cpu.numWorkItemsCompleted                    0                       # number of work items this cpu completed
system.cpu.numWorkItemsStarted                      0                       # number of work items this cpu started
system.cpu.op_class_0::No_OpClass                   0      0.00%      0.00% # Class of committed instruction
system.cpu.op_class_0::IntAlu                50006957     50.01%     50.01% # Class of committed instruction
system.cpu.op_class_0::IntMult                     85      0.00%     50.01% # Class of committed instruction
system.cpu.op_class_0::IntDiv                       0      0.00%     50.01% # Class of committed instruction
system.cpu.op_class_0::FloatAdd                     0      0.00%     50.01% # Class of committed instruction
system.cpu.op_class_0::FloatCmp                     0      0.00%     50.01% # Class of committed instruction
system.cpu.op_class_0::FloatCvt                     0      0.00%     50.01% # Class of committed instruction
system.cpu.op_class_0::FloatMult                    0      0.00%     50.01% # Class of committed instruction
system.cpu.op_class_0::FloatMultAcc                 0      0.00%     50.01% # Class of committed instruction
system.cpu.op_class_0::FloatDiv                     0      0.00%     50.01% # Class of committed instruction
system.cpu.op_class_0::FloatMisc                    0      0.00%     50.01% # Class of committed instruction
system.cpu.op_class_0::FloatSqrt                    0      0.00%     50.01% # Class of committed instruction
system.cpu.op_class_0::SimdAdd                      0      0.00%     50.01% # Class of committed instruction
system.cpu.op_class_0::SimdAddAcc                   0      0.00%     50.01% # Class of committed instruction
system.cpu.op_class_0::SimdAlu                      0      0.00%     50.01% # Class of committed instruction
system.cpu.op_class_0::SimdCmp                      0      0.00%     50.01% # Class of committed instruction
system.cpu.op_class_0::SimdCvt                      0      0.00%     50.01% # Class of committed instruction
system.cpu.op_class_0::SimdMisc                     0      0.00%     50.01% # Class of committed instruction
system.cpu.op_class_0::SimdMult                     0      0.00%     50.01% # Class of committed instruction
system.cpu.op_class_0::SimdMultAcc                  0      0.00%     50.01% # Class of committed instruction
system.cpu.op_class_0::SimdShift                    0      0.00%     50.01% # Class of committed instruction
system.cpu.op_class_0::SimdShiftAcc                 0      0.00%     50.01% # Class of committed instruction
system.cpu.op_class_0::SimdDiv                      0      0.00%     50.01% # Class of committed instruction
system.cpu.op_class_0::SimdSqrt                     0      0.00%     50.01% # Class of committed instruction
system.cpu.op_class_0::SimdFloatAdd                 0      0.00%     50.01% # Class of committed instruction
system.cpu.op_class_0::SimdFloatAlu                 0      0.00%     50.01% # Class of committed instruction
system.cpu.op_class_0::SimdFloatCmp                 2      0.00%     50.01% # Class of committed instruction
system.cpu.op_class_0::SimdFloatCvt                 0      0.00%     50.01% # Class of committed instruction
system.cpu.op_class_0::SimdFloatDiv                 0      0.00%     50.01% # Class of committed instruction
system.cpu.op_class_0::SimdFloatMisc               22      0.00%     50.01% # Class of committed instruction
system.cpu.op_class_0::SimdFloatMult                0      0.00%     50.01% # Class of committed instruction
system.cpu.op_class_0::SimdFloatMultAcc             0      0.00%     50.01% # Class of committed instruction
system.cpu.op_class_0::SimdFloatSqrt                0      0.00%     50.01% # Class of committed instruction
system.cpu.op_class_0::SimdReduceAdd                0      0.00%     50.01% # Class of committed instruction
system.cpu.op_class_0::SimdReduceAlu                0      0.00%     50.01% # Class of committed instruction
system.cpu.op_class_0::SimdReduceCmp                0      0.00%     50.01% # Class of committed instruction
system.cpu.op_class_0::SimdFloatReduceAdd            0      0.00%     50.01% # Class of committed instruction
system.cpu.op_class_0::SimdFloatReduceCmp            0      0.00%     50.01% # Class of committed instruction
system.cpu.op_class_0::SimdAes                      0      0.00%     50.01% # Class of committed instruction
system.cpu.op_class_0::SimdAesMix                   0      0.00%     50.01% # Class of committed instruction
system.cpu.op_class_0::SimdSha1Hash                 0      0.00%     50.01% # Class of committed instruction
system.cpu.op_class_0::SimdSha1Hash2                0      0.00%     50.01% # Class of committed instruction
system.cpu.op_class_0::SimdSha256Hash               0      0.00%     50.01% # Class of committed instruction
system.cpu.op_class_0::SimdSha256Hash2              0      0.00%     50.01% # Class of committed instruction
system.cpu.op_class_0::SimdShaSigma2                0      0.00%     50.01% # Class of committed instruction
system.cpu.op_class_0::SimdShaSigma3                0      0.00%     50.01% # Class of committed instruction
system.cpu.op_class_0::SimdPredAlu                  0      0.00%     50.01% # Class of committed instruction
system.cpu.op_class_0::MemRead               36900878     36.90%     86.90% # Class of committed instruction
system.cpu.op_class_0::MemWrite              13095693     13.10%    100.00% # Class of committed instruction
system.cpu.op_class_0::FloatMemRead                 0      0.00%    100.00% # Class of committed instruction
system.cpu.op_class_0::FloatMemWrite                0      0.00%    100.00% # Class of committed instruction
system.cpu.op_class_0::IprAccess                    0      0.00%    100.00% # Class of committed instruction
system.cpu.op_class_0::InstPrefetch                 0      0.00%    100.00% # Class of committed instruction
system.cpu.op_class_0::total                100003637                       # Class of committed instruction
system.cpu.tickCycles                       117341244                       # Number of cycles that the object actually ticked
system.cpu.workload.numSyscalls                    18                       # Number of system calls
system.membus.snoop_filter.hit_multi_requests            0                       # Number of requests hitting in the snoop filter with multiple (>1) holders of the requested data.
system.membus.snoop_filter.hit_multi_snoops            0                       # Number of snoops hitting in the snoop filter with multiple (>1) holders of the requested data.
system.membus.snoop_filter.hit_single_requests      1479870                       # Number of requests hitting in the snoop filter with a single holder of the requested data.
system.membus.snoop_filter.hit_single_snoops            0                       # Number of snoops hitting in the snoop filter with a single holder of the requested data.
system.membus.snoop_filter.tot_requests       2968322                       # Total number of requests made to the snoop filter.
system.membus.snoop_filter.tot_snoops               0                       # Total number of snoops made to the snoop filter.
system.tol2bus.snoop_filter.hit_multi_requests        11654                       # Number of requests hitting in the snoop filter with multiple (>1) holders of the requested data.
system.tol2bus.snoop_filter.hit_multi_snoops            0                       # Number of snoops hitting in the snoop filter with multiple (>1) holders of the requested data.
system.tol2bus.snoop_filter.hit_single_requests      1528359                       # Number of requests hitting in the snoop filter with a single holder of the requested data.
system.tol2bus.snoop_filter.hit_single_snoops          390                       # Number of snoops hitting in the snoop filter with a single holder of the requested data.
system.tol2bus.snoop_filter.tot_requests      3057620                       # Total number of requests made to the snoop filter.
system.tol2bus.snoop_filter.tot_snoops            390                       # Total number of snoops made to the snoop filter.
system.membus.pwrStateResidencyTicks::UNDEFINED 265025944000                       # Cumulative time (in ticks) in various power states
system.membus.trans_dist::ReadResp                601                       # Transaction distribution
system.membus.trans_dist::WritebackDirty      1479678                       # Transaction distribution
system.membus.trans_dist::CleanEvict              192                       # Transaction distribution
system.membus.trans_dist::ReadExReq           1487851                       # Transaction distribution
system.membus.trans_dist::ReadExResp          1487851                       # Transaction distribution
system.membus.trans_dist::ReadSharedReq           601                       # Transaction distribution
system.membus.pkt_count_system.l2.mem_side::system.mem_ctrls.port      4456774                       # Packet count per connected master and slave (bytes)
system.membus.pkt_count::total                4456774                       # Packet count per connected master and slave (bytes)
system.membus.pkt_size_system.l2.mem_side::system.mem_ctrls.port    189960320                       # Cumulative packet size per connected master and slave (bytes)
system.membus.pkt_size::total               189960320                       # Cumulative packet size per connected master and slave (bytes)
system.membus.snoops                                0                       # Total snoops (count)
system.membus.snoopTraffic                          0                       # Total snoop traffic (bytes)
system.membus.snoop_fanout::samples           1488452                       # Request fanout histogram
system.membus.snoop_fanout::mean                    0                       # Request fanout histogram
system.membus.snoop_fanout::stdev                   0                       # Request fanout histogram
system.membus.snoop_fanout::underflows              0      0.00%      0.00% # Request fanout histogram
system.membus.snoop_fanout::0                 1488452    100.00%    100.00% # Request fanout histogram
system.membus.snoop_fanout::1                       0      0.00%    100.00% # Request fanout histogram
system.membus.snoop_fanout::overflows               0      0.00%    100.00% # Request fanout histogram
system.membus.snoop_fanout::min_value               0                       # Request fanout histogram
system.membus.snoop_fanout::max_value               0                       # Request fanout histogram
system.membus.snoop_fanout::total             1488452                       # Request fanout histogram
system.membus.respLayer1.occupancy         7834878250                       # Layer occupancy (ticks)
system.membus.respLayer1.utilization              3.0                       # Layer utilization (%)
system.membus.reqLayer0.occupancy          8887034000                       # Layer occupancy (ticks)
system.membus.reqLayer0.utilization               3.4                       # Layer utilization (%)
system.tol2bus.pwrStateResidencyTicks::UNDEFINED 265025944000                       # Cumulative time (in ticks) in various power states
system.tol2bus.trans_dist::ReadResp             23971                       # Transaction distribution
system.tol2bus.trans_dist::WritebackDirty      2996107                       # Transaction distribution
system.tol2bus.trans_dist::WritebackClean          189                       # Transaction distribution
system.tol2bus.trans_dist::CleanEvict           12322                       # Transaction distribution
system.tol2bus.trans_dist::ReadExReq          1505291                       # Transaction distribution
system.tol2bus.trans_dist::ReadExResp         1505290                       # Transaction distribution
system.tol2bus.trans_dist::ReadCleanReq           580                       # Transaction distribution
system.tol2bus.trans_dist::ReadSharedReq        23391                       # Transaction distribution
system.tol2bus.pkt_count_system.cpu.icache.mem_side::system.l2.cpu_side         1349                       # Packet count per connected master and slave (bytes)
system.tol2bus.pkt_count_system.cpu.dcache.mem_side::system.l2.cpu_side      4585532                       # Packet count per connected master and slave (bytes)
system.tol2bus.pkt_count::total               4586881                       # Packet count per connected master and slave (bytes)
system.tol2bus.pkt_size_system.cpu.icache.mem_side::system.l2.cpu_side        49216                       # Cumulative packet size per connected master and slave (bytes)
system.tol2bus.pkt_size_system.cpu.dcache.mem_side::system.l2.cpu_side    194887040                       # Cumulative packet size per connected master and slave (bytes)
system.tol2bus.pkt_size::total              194936256                       # Cumulative packet size per connected master and slave (bytes)
system.tol2bus.snoops                         1480260                       # Total snoops (count)
system.tol2bus.snoopTraffic                  94699392                       # Total snoop traffic (bytes)
system.tol2bus.snoop_fanout::samples          3009522                       # Request fanout histogram
system.tol2bus.snoop_fanout::mean            0.004002                       # Request fanout histogram
system.tol2bus.snoop_fanout::stdev           0.063137                       # Request fanout histogram
system.tol2bus.snoop_fanout::underflows             0      0.00%      0.00% # Request fanout histogram
system.tol2bus.snoop_fanout::0                2997477     99.60%     99.60% # Request fanout histogram
system.tol2bus.snoop_fanout::1                  12045      0.40%    100.00% # Request fanout histogram
system.tol2bus.snoop_fanout::2                      0      0.00%    100.00% # Request fanout histogram
system.tol2bus.snoop_fanout::overflows              0      0.00%    100.00% # Request fanout histogram
system.tol2bus.snoop_fanout::min_value              0                       # Request fanout histogram
system.tol2bus.snoop_fanout::max_value              1                       # Request fanout histogram
system.tol2bus.snoop_fanout::total            3009522                       # Request fanout histogram
system.tol2bus.reqLayer0.occupancy         6090856000                       # Layer occupancy (ticks)
system.tol2bus.reqLayer0.utilization              2.3                       # Layer utilization (%)
system.tol2bus.respLayer1.occupancy        4586045997                       # Layer occupancy (ticks)
system.tol2bus.respLayer1.utilization             1.7                       # Layer utilization (%)
system.tol2bus.respLayer0.occupancy           1740999                       # Layer occupancy (ticks)
system.tol2bus.respLayer0.utilization             0.0                       # Layer utilization (%)
system.voltage_domain.voltage                       1                       # Voltage in Volts
system.clk_domain.clock                          1000                       # Clock period in ticks
system.l2.pwrStateResidencyTicks::UNDEFINED 265025944000                       # Cumulative time (in ticks) in various power states
system.l2.demand_hits::.cpu.inst                   89                       # number of demand (read+write) hits
system.l2.demand_hits::.cpu.data                40716                       # number of demand (read+write) hits
system.l2.demand_hits::total                    40805                       # number of demand (read+write) hits
system.l2.overall_hits::.cpu.inst                  89                       # number of overall hits
system.l2.overall_hits::.cpu.data               40716                       # number of overall hits
system.l2.overall_hits::total                   40805                       # number of overall hits
system.l2.demand_misses::.cpu.inst                491                       # number of demand (read+write) misses
system.l2.demand_misses::.cpu.data            1487966                       # number of demand (read+write) misses
system.l2.demand_misses::total                1488457                       # number of demand (read+write) misses
system.l2.overall_misses::.cpu.inst               491                       # number of overall misses
system.l2.overall_misses::.cpu.data           1487966                       # number of overall misses
system.l2.overall_misses::total               1488457                       # number of overall misses
system.l2.demand_miss_latency::.cpu.inst     47679000                       # number of demand (read+write) miss cycles
system.l2.demand_miss_latency::.cpu.data 151572337000                       # number of demand (read+write) miss cycles
system.l2.demand_miss_latency::total     151620016000                       # number of demand (read+write) miss cycles
system.l2.overall_miss_latency::.cpu.inst     47679000                       # number of overall miss cycles
system.l2.overall_miss_latency::.cpu.data 151572337000                       # number of overall miss cycles
system.l2.overall_miss_latency::total    151620016000                       # number of overall miss cycles
system.l2.demand_accesses::.cpu.inst              580                       # number of demand (read+write) accesses
system.l2.demand_accesses::.cpu.data          1528682                       # number of demand (read+write) accesses
system.l2.demand_accesses::total              1529262                       # number of demand (read+write) accesses
system.l2.overall_accesses::.cpu.inst             580                       # number of overall (read+write) accesses
system.l2.overall_accesses::.cpu.data         1528682                       # number of overall (read+write) accesses
system.l2.overall_accesses::total             1529262                       # number of overall (read+write) accesses
system.l2.demand_miss_rate::.cpu.inst        0.846552                       # miss rate for demand accesses
system.l2.demand_miss_rate::.cpu.data        0.973365                       # miss rate for demand accesses
system.l2.demand_miss_rate::total            0.973317                       # miss rate for demand accesses
system.l2.overall_miss_rate::.cpu.inst       0.846552                       # miss rate for overall accesses
system.l2.overall_miss_rate::.cpu.data       0.973365                       # miss rate for overall accesses
system.l2.overall_miss_rate::total           0.973317                       # miss rate for overall accesses
system.l2.demand_avg_miss_latency::.cpu.inst 97105.906314                       # average overall miss latency
system.l2.demand_avg_miss_latency::.cpu.data 101865.457275                       # average overall miss latency
system.l2.demand_avg_miss_latency::total 101863.887234                       # average overall miss latency
system.l2.overall_avg_miss_latency::.cpu.inst 97105.906314                       # average overall miss latency
system.l2.overall_avg_miss_latency::.cpu.data 101865.457275                       # average overall miss latency
system.l2.overall_avg_miss_latency::total 101863.887234                       # average overall miss latency
system.l2.blocked_cycles::no_mshrs                  0                       # number of cycles access was blocked
system.l2.blocked_cycles::no_targets                0                       # number of cycles access was blocked
system.l2.blocked::no_mshrs                         0                       # number of cycles access was blocked
system.l2.blocked::no_targets                       0                       # number of cycles access was blocked
system.l2.avg_blocked_cycles::no_mshrs            nan                       # average number of cycles each access was blocked
system.l2.avg_blocked_cycles::no_targets          nan                       # average number of cycles each access was blocked
system.l2.writebacks::.writebacks             1479678                       # number of writebacks
system.l2.writebacks::total                   1479678                       # number of writebacks
system.l2.demand_mshr_hits::.cpu.inst               1                       # number of demand (read+write) MSHR hits
system.l2.demand_mshr_hits::.cpu.data               3                       # number of demand (read+write) MSHR hits
system.l2.demand_mshr_hits::total                   4                       # number of demand (read+write) MSHR hits
system.l2.overall_mshr_hits::.cpu.inst              1                       # number of overall MSHR hits
system.l2.overall_mshr_hits::.cpu.data              3                       # number of overall MSHR hits
system.l2.overall_mshr_hits::total                  4                       # number of overall MSHR hits
system.l2.demand_mshr_misses::.cpu.inst           490                       # number of demand (read+write) MSHR misses
system.l2.demand_mshr_misses::.cpu.data       1487963                       # number of demand (read+write) MSHR misses
system.l2.demand_mshr_misses::total           1488453                       # number of demand (read+write) MSHR misses
system.l2.overall_mshr_misses::.cpu.inst          490                       # number of overall MSHR misses
system.l2.overall_mshr_misses::.cpu.data      1487963                       # number of overall MSHR misses
system.l2.overall_mshr_misses::total          1488453                       # number of overall MSHR misses
system.l2.demand_mshr_miss_latency::.cpu.inst     37794000                       # number of demand (read+write) MSHR miss cycles
system.l2.demand_mshr_miss_latency::.cpu.data 121812841000                       # number of demand (read+write) MSHR miss cycles
system.l2.demand_mshr_miss_latency::total 121850635000                       # number of demand (read+write) MSHR miss cycles
system.l2.overall_mshr_miss_latency::.cpu.inst     37794000                       # number of overall MSHR miss cycles
system.l2.overall_mshr_miss_latency::.cpu.data 121812841000                       # number of overall MSHR miss cycles
system.l2.overall_mshr_miss_latency::total 121850635000                       # number of overall MSHR miss cycles
system.l2.demand_mshr_miss_rate::.cpu.inst     0.844828                       # mshr miss rate for demand accesses
system.l2.demand_mshr_miss_rate::.cpu.data     0.973363                       # mshr miss rate for demand accesses
system.l2.demand_mshr_miss_rate::total       0.973315                       # mshr miss rate for demand accesses
system.l2.overall_mshr_miss_rate::.cpu.inst     0.844828                       # mshr miss rate for overall accesses
system.l2.overall_mshr_miss_rate::.cpu.data     0.973363                       # mshr miss rate for overall accesses
system.l2.overall_mshr_miss_rate::total      0.973315                       # mshr miss rate for overall accesses
system.l2.demand_avg_mshr_miss_latency::.cpu.inst 77130.612245                       # average overall mshr miss latency
system.l2.demand_avg_mshr_miss_latency::.cpu.data 81865.504048                       # average overall mshr miss latency
system.l2.demand_avg_mshr_miss_latency::total 81863.945318                       # average overall mshr miss latency
system.l2.overall_avg_mshr_miss_latency::.cpu.inst 77130.612245                       # average overall mshr miss latency
system.l2.overall_avg_mshr_miss_latency::.cpu.data 81865.504048                       # average overall mshr miss latency
system.l2.overall_avg_mshr_miss_latency::total 81863.945318                       # average overall mshr miss latency
system.l2.replacements                        1480260                       # number of replacements
system.l2.WritebackDirty_hits::.writebacks      1516429                       # number of WritebackDirty hits
system.l2.WritebackDirty_hits::total          1516429                       # number of WritebackDirty hits
system.l2.WritebackDirty_accesses::.writebacks      1516429                       # number of WritebackDirty accesses(hits+misses)
system.l2.WritebackDirty_accesses::total      1516429                       # number of WritebackDirty accesses(hits+misses)
system.l2.WritebackClean_hits::.writebacks          181                       # number of WritebackClean hits
system.l2.WritebackClean_hits::total              181                       # number of WritebackClean hits
system.l2.WritebackClean_accesses::.writebacks          181                       # number of WritebackClean accesses(hits+misses)
system.l2.WritebackClean_accesses::total          181                       # number of WritebackClean accesses(hits+misses)
system.l2.ReadExReq_hits::.cpu.data             17439                       # number of ReadExReq hits
system.l2.ReadExReq_hits::total                 17439                       # number of ReadExReq hits
system.l2.ReadExReq_misses::.cpu.data         1487852                       # number of ReadExReq misses
system.l2.ReadExReq_misses::total             1487852                       # number of ReadExReq misses
system.l2.ReadExReq_miss_latency::.cpu.data 151560890000                       # number of ReadExReq miss cycles
system.l2.ReadExReq_miss_latency::total  151560890000                       # number of ReadExReq miss cycles
system.l2.ReadExReq_accesses::.cpu.data       1505291                       # number of ReadExReq accesses(hits+misses)
system.l2.ReadExReq_accesses::total           1505291                       # number of ReadExReq accesses(hits+misses)
system.l2.ReadExReq_miss_rate::.cpu.data     0.988415                       # miss rate for ReadExReq accesses
system.l2.ReadExReq_miss_rate::total         0.988415                       # miss rate for ReadExReq accesses
system.l2.ReadExReq_avg_miss_latency::.cpu.data 101865.568618                       # average ReadExReq miss latency
system.l2.ReadExReq_avg_miss_latency::total 101865.568618                       # average ReadExReq miss latency
system.l2.ReadExReq_mshr_misses::.cpu.data      1487852                       # number of ReadExReq MSHR misses
system.l2.ReadExReq_mshr_misses::total        1487852                       # number of ReadExReq MSHR misses
system.l2.ReadExReq_mshr_miss_latency::.cpu.data 121803870000                       # number of ReadExReq MSHR miss cycles
system.l2.ReadExReq_mshr_miss_latency::total 121803870000                       # number of ReadExReq MSHR miss cycles
system.l2.ReadExReq_mshr_miss_rate::.cpu.data     0.988415                       # mshr miss rate for ReadExReq accesses
system.l2.ReadExReq_mshr_miss_rate::total     0.988415                       # mshr miss rate for ReadExReq accesses
system.l2.ReadExReq_avg_mshr_miss_latency::.cpu.data 81865.582061                       # average ReadExReq mshr miss latency
system.l2.ReadExReq_avg_mshr_miss_latency::total 81865.582061                       # average ReadExReq mshr miss latency
system.l2.ReadCleanReq_hits::.cpu.inst             89                       # number of ReadCleanReq hits
system.l2.ReadCleanReq_hits::total                 89                       # number of ReadCleanReq hits
system.l2.ReadCleanReq_misses::.cpu.inst          491                       # number of ReadCleanReq misses
system.l2.ReadCleanReq_misses::total              491                       # number of ReadCleanReq misses
system.l2.ReadCleanReq_miss_latency::.cpu.inst     47679000                       # number of ReadCleanReq miss cycles
system.l2.ReadCleanReq_miss_latency::total     47679000                       # number of ReadCleanReq miss cycles
system.l2.ReadCleanReq_accesses::.cpu.inst          580                       # number of ReadCleanReq accesses(hits+misses)
system.l2.ReadCleanReq_accesses::total            580                       # number of ReadCleanReq accesses(hits+misses)
system.l2.ReadCleanReq_miss_rate::.cpu.inst     0.846552                       # miss rate for ReadCleanReq accesses
system.l2.ReadCleanReq_miss_rate::total      0.846552                       # miss rate for ReadCleanReq accesses
system.l2.ReadCleanReq_avg_miss_latency::.cpu.inst 97105.906314                       # average ReadCleanReq miss latency
system.l2.ReadCleanReq_avg_miss_latency::total 97105.906314                       # average ReadCleanReq miss latency
system.l2.ReadCleanReq_mshr_hits::.cpu.inst            1                       # number of ReadCleanReq MSHR hits
system.l2.ReadCleanReq_mshr_hits::total             1                       # number of ReadCleanReq MSHR hits
system.l2.ReadCleanReq_mshr_misses::.cpu.inst          490                       # number of ReadCleanReq MSHR misses
system.l2.ReadCleanReq_mshr_misses::total          490                       # number of ReadCleanReq MSHR misses
system.l2.ReadCleanReq_mshr_miss_latency::.cpu.inst     37794000                       # number of ReadCleanReq MSHR miss cycles
system.l2.ReadCleanReq_mshr_miss_latency::total     37794000                       # number of ReadCleanReq MSHR miss cycles
system.l2.ReadCleanReq_mshr_miss_rate::.cpu.inst     0.844828                       # mshr miss rate for ReadCleanReq accesses
system.l2.ReadCleanReq_mshr_miss_rate::total     0.844828                       # mshr miss rate for ReadCleanReq accesses
system.l2.ReadCleanReq_avg_mshr_miss_latency::.cpu.inst 77130.612245                       # average ReadCleanReq mshr miss latency
system.l2.ReadCleanReq_avg_mshr_miss_latency::total 77130.612245                       # average ReadCleanReq mshr miss latency
system.l2.ReadSharedReq_hits::.cpu.data         23277                       # number of ReadSharedReq hits
system.l2.ReadSharedReq_hits::total             23277                       # number of ReadSharedReq hits
system.l2.ReadSharedReq_misses::.cpu.data          114                       # number of ReadSharedReq misses
system.l2.ReadSharedReq_misses::total             114                       # number of ReadSharedReq misses
system.l2.ReadSharedReq_miss_latency::.cpu.data     11447000                       # number of ReadSharedReq miss cycles
system.l2.ReadSharedReq_miss_latency::total     11447000                       # number of ReadSharedReq miss cycles
system.l2.ReadSharedReq_accesses::.cpu.data        23391                       # number of ReadSharedReq accesses(hits+misses)
system.l2.ReadSharedReq_accesses::total         23391                       # number of ReadSharedReq accesses(hits+misses)
system.l2.ReadSharedReq_miss_rate::.cpu.data     0.004874                       # miss rate for ReadSharedReq accesses
system.l2.ReadSharedReq_miss_rate::total     0.004874                       # miss rate for ReadSharedReq accesses
system.l2.ReadSharedReq_avg_miss_latency::.cpu.data 100412.280702                       # average ReadSharedReq miss latency
system.l2.ReadSharedReq_avg_miss_latency::total 100412.280702                       # average ReadSharedReq miss latency
system.l2.ReadSharedReq_mshr_hits::.cpu.data            3                       # number of ReadSharedReq MSHR hits
system.l2.ReadSharedReq_mshr_hits::total            3                       # number of ReadSharedReq MSHR hits
system.l2.ReadSharedReq_mshr_misses::.cpu.data          111                       # number of ReadSharedReq MSHR misses
system.l2.ReadSharedReq_mshr_misses::total          111                       # number of ReadSharedReq MSHR misses
system.l2.ReadSharedReq_mshr_miss_latency::.cpu.data      8971000                       # number of ReadSharedReq MSHR miss cycles
system.l2.ReadSharedReq_mshr_miss_latency::total      8971000                       # number of ReadSharedReq MSHR miss cycles
system.l2.ReadSharedReq_mshr_miss_rate::.cpu.data     0.004745                       # mshr miss rate for ReadSharedReq accesses
system.l2.ReadSharedReq_mshr_miss_rate::total     0.004745                       # mshr miss rate for ReadSharedReq accesses
system.l2.ReadSharedReq_avg_mshr_miss_latency::.cpu.data 80819.819820                       # average ReadSharedReq mshr miss latency
system.l2.ReadSharedReq_avg_mshr_miss_latency::total 80819.819820                       # average ReadSharedReq mshr miss latency
system.l2.tags.pwrStateResidencyTicks::UNDEFINED 265025944000                       # Cumulative time (in ticks) in various power states
system.l2.tags.tagsinuse                  8170.287584                       # Cycle average of tags in use
system.l2.tags.total_refs                     3045961                       # Total number of references to valid blocks.
system.l2.tags.sampled_refs                   1488452                       # Sample count of references to valid blocks.
system.l2.tags.avg_refs                      2.046395                       # Average number of references to valid blocks.
system.l2.tags.warmup_cycle                     87000                       # Cycle when the warmup percentage was hit.
system.l2.tags.occ_blocks::.cpu.inst         2.936649                       # Average occupied blocks per requestor
system.l2.tags.occ_blocks::.cpu.data      8167.350935                       # Average occupied blocks per requestor
system.l2.tags.occ_percent::.cpu.inst        0.000358                       # Average percentage of cache occupancy
system.l2.tags.occ_percent::.cpu.data        0.996991                       # Average percentage of cache occupancy
system.l2.tags.occ_percent::total            0.997350                       # Average percentage of cache occupancy
system.l2.tags.occ_task_id_blocks::1024          8192                       # Occupied blocks per task id
system.l2.tags.age_task_id_blocks_1024::0           57                       # Occupied blocks per task id
system.l2.tags.age_task_id_blocks_1024::1          506                       # Occupied blocks per task id
system.l2.tags.age_task_id_blocks_1024::2         5052                       # Occupied blocks per task id
system.l2.tags.age_task_id_blocks_1024::3         2575                       # Occupied blocks per task id
system.l2.tags.age_task_id_blocks_1024::4            2                       # Occupied blocks per task id
system.l2.tags.occ_task_id_percent::1024            1                       # Percentage of cache occupancy per task id
system.l2.tags.tag_accesses                   7580384                       # Number of tag accesses
system.l2.tags.data_accesses                  7580384                       # Number of data accesses
system.cpu_voltage_domain.voltage                   1                       # Voltage in Volts
system.mem_ctrls.pwrStateResidencyTicks::UNDEFINED 265025944000                       # Cumulative time (in ticks) in various power states
system.mem_ctrls.bytes_read::.cpu.inst          31360                       # Number of bytes read from this memory
system.mem_ctrls.bytes_read::.cpu.data       95229568                       # Number of bytes read from this memory
system.mem_ctrls.bytes_read::total           95260928                       # Number of bytes read from this memory
system.mem_ctrls.bytes_inst_read::.cpu.inst        31360                       # Number of instructions bytes read from this memory
system.mem_ctrls.bytes_inst_read::total         31360                       # Number of instructions bytes read from this memory
system.mem_ctrls.bytes_written::.writebacks     94699392                       # Number of bytes written to this memory
system.mem_ctrls.bytes_written::total        94699392                       # Number of bytes written to this memory
system.mem_ctrls.num_reads::.cpu.inst             490                       # Number of read requests responded to by this memory
system.mem_ctrls.num_reads::.cpu.data         1487962                       # Number of read requests responded to by this memory
system.mem_ctrls.num_reads::total             1488452                       # Number of read requests responded to by this memory
system.mem_ctrls.num_writes::.writebacks      1479678                       # Number of write requests responded to by this memory
system.mem_ctrls.num_writes::total            1479678                       # Number of write requests responded to by this memory
system.mem_ctrls.bw_read::.cpu.inst            118328                       # Total read bandwidth from this memory (bytes/s)
system.mem_ctrls.bw_read::.cpu.data         359321682                       # Total read bandwidth from this memory (bytes/s)
system.mem_ctrls.bw_read::total             359440010                       # Total read bandwidth from this memory (bytes/s)
system.mem_ctrls.bw_inst_read::.cpu.inst       118328                       # Instruction read bandwidth from this memory (bytes/s)
system.mem_ctrls.bw_inst_read::total           118328                       # Instruction read bandwidth from this memory (bytes/s)
system.mem_ctrls.bw_write::.writebacks      357321214                       # Write bandwidth from this memory (bytes/s)
system.mem_ctrls.bw_write::total            357321214                       # Write bandwidth from this memory (bytes/s)
system.mem_ctrls.bw_total::.writebacks      357321214                       # Total bandwidth to/from this memory (bytes/s)
system.mem_ctrls.bw_total::.cpu.inst           118328                       # Total bandwidth to/from this memory (bytes/s)
system.mem_ctrls.bw_total::.cpu.data        359321682                       # Total bandwidth to/from this memory (bytes/s)
system.mem_ctrls.bw_total::total            716761224                       # Total bandwidth to/from this memory (bytes/s)
system.mem_ctrls.avgPriority_.writebacks::samples   1479678.00                       # Average QoS priority value for accepted requests
system.mem_ctrls.avgPriority_.cpu.inst::samples       490.00                       # Average QoS priority value for accepted requests
system.mem_ctrls.avgPriority_.cpu.data::samples   1487962.00                       # Average QoS priority value for accepted requests
system.mem_ctrls.priorityMinLatency      0.000000018750                       # per QoS priority minimum request to response latency (s)
system.mem_ctrls.priorityMaxLatency      0.001384630500                       # per QoS priority maximum request to response latency (s)
system.mem_ctrls.numReadWriteTurnArounds        82389                       # Number of turnarounds from READ to WRITE
system.mem_ctrls.numWriteReadTurnArounds        82389                       # Number of turnarounds from WRITE to READ
system.mem_ctrls.numStayReadState             4458064                       # Number of times bus staying in READ state
system.mem_ctrls.numStayWriteState            1403466                       # Number of times bus staying in WRITE state
system.mem_ctrls.readReqs                     1488452                       # Number of read requests accepted
system.mem_ctrls.writeReqs                    1479678                       # Number of write requests accepted
system.mem_ctrls.readBursts                   1488452                       # Number of DRAM read bursts, including those serviced by the write queue
system.mem_ctrls.writeBursts                  1479678                       # Number of DRAM write bursts, including those merged in the write queue
system.mem_ctrls.servicedByWrQ                      0                       # Number of DRAM read bursts serviced by the write queue
system.mem_ctrls.mergedWrBursts                     0                       # Number of DRAM write bursts merged with an existing one
system.mem_ctrls.neitherReadNorWriteReqs            0                       # Number of requests that are neither read nor write
system.mem_ctrls.perBankRdBursts::0             93065                       # Per bank write bursts
system.mem_ctrls.perBankRdBursts::1             92958                       # Per bank write bursts
system.mem_ctrls.perBankRdBursts::2             92992                       # Per bank write bursts
system.mem_ctrls.perBankRdBursts::3             93001                       # Per bank write bursts
system.mem_ctrls.perBankRdBursts::4             93101                       # Per bank write bursts
system.mem_ctrls.perBankRdBursts::5             93074                       # Per bank write bursts
system.mem_ctrls.perBankRdBursts::6             93061                       # Per bank write bursts
system.mem_ctrls.perBankRdBursts::7             93078                       # Per bank write bursts
system.mem_ctrls.perBankRdBursts::8             93156                       # Per bank write bursts
system.mem_ctrls.perBankRdBursts::9             93072                       # Per bank write bursts
system.mem_ctrls.perBankRdBursts::10            93050                       # Per bank write bursts
system.mem_ctrls.perBankRdBursts::11            92953                       # Per bank write bursts
system.mem_ctrls.perBankRdBursts::12            92999                       # Per bank write bursts
system.mem_ctrls.perBankRdBursts::13            92951                       # Per bank write bursts
system.mem_ctrls.perBankRdBursts::14            92954                       # Per bank write bursts
system.mem_ctrls.perBankRdBursts::15            92987                       # Per bank write bursts
system.mem_ctrls.perBankWrBursts::0             92461                       # Per bank write bursts
system.mem_ctrls.perBankWrBursts::1             92441                       # Per bank write bursts
system.mem_ctrls.perBankWrBursts::2             92431                       # Per bank write bursts
system.mem_ctrls.perBankWrBursts::3             92485                       # Per bank write bursts
system.mem_ctrls.perBankWrBursts::4             92545                       # Per bank write bursts
system.mem_ctrls.perBankWrBursts::5             92544                       # Per bank write bursts
system.mem_ctrls.perBankWrBursts::6             92544                       # Per bank write bursts
system.mem_ctrls.perBankWrBursts::7             92544                       # Per bank write bursts
system.mem_ctrls.perBankWrBursts::8             92544                       # Per bank write bursts
system.mem_ctrls.perBankWrBursts::9             92544                       # Per bank write bursts
system.mem_ctrls.perBankWrBursts::10            92480                       # Per bank write bursts
system.mem_ctrls.perBankWrBursts::11            92416                       # Per bank write bursts
system.mem_ctrls.perBankWrBursts::12            92416                       # Per bank write bursts
system.mem_ctrls.perBankWrBursts::13            92416                       # Per bank write bursts
system.mem_ctrls.perBankWrBursts::14            92416                       # Per bank write bursts
system.mem_ctrls.perBankWrBursts::15            92420                       # Per bank write bursts
system.mem_ctrls.avgRdQLen                       1.00                       # Average read queue length when enqueuing
system.mem_ctrls.avgWrQLen                      24.75                       # Average write queue length when enqueuing
system.mem_ctrls.totQLat                  17638479000                       # Total ticks spent queuing
system.mem_ctrls.totBusLat                 7442260000                       # Total ticks spent in databus transfers
system.mem_ctrls.totMemAccLat             45546954000                       # Total ticks spent from burst creation until serviced by the DRAM
system.mem_ctrls.avgQLat                     11850.22                       # Average queueing delay per DRAM burst
system.mem_ctrls.avgBusLat                    5000.00                       # Average bus latency per DRAM burst
system.mem_ctrls.avgMemAccLat                30600.22                       # Average memory access latency per DRAM burst
system.mem_ctrls.numRdRetry                         0                       # Number of times read queue was full causing retry
system.mem_ctrls.numWrRetry                         0                       # Number of times write queue was full causing retry
system.mem_ctrls.readRowHits                  1314844                       # Number of row buffer hits during reads
system.mem_ctrls.writeRowHits                 1313588                       # Number of row buffer hits during writes
system.mem_ctrls.readRowHitRate                 88.34                       # Row buffer hit rate for reads
system.mem_ctrls.writeRowHitRate                88.78                       # Row buffer hit rate for writes
system.mem_ctrls.readPktSize::0                     0                       # Read request sizes (log2)
system.mem_ctrls.readPktSize::1                     0                       # Read request sizes (log2)
system.mem_ctrls.readPktSize::2                     0                       # Read request sizes (log2)
system.mem_ctrls.readPktSize::3                     0                       # Read request sizes (log2)
system.mem_ctrls.readPktSize::4                     0                       # Read request sizes (log2)
system.mem_ctrls.readPktSize::5                     0                       # Read request sizes (log2)
system.mem_ctrls.readPktSize::6               1488452                       # Read request sizes (log2)
system.mem_ctrls.writePktSize::0                    0                       # Write request sizes (log2)
system.mem_ctrls.writePktSize::1                    0                       # Write request sizes (log2)
system.mem_ctrls.writePktSize::2                    0                       # Write request sizes (log2)
system.mem_ctrls.writePktSize::3                    0                       # Write request sizes (log2)
system.mem_ctrls.writePktSize::4                    0                       # Write request sizes (log2)
system.mem_ctrls.writePktSize::5                    0                       # Write request sizes (log2)
system.mem_ctrls.writePktSize::6              1479678                       # Write request sizes (log2)
system.mem_ctrls.rdQLenPdf::0                 1488368                       # What read queue length does an incoming req see
system.mem_ctrls.rdQLenPdf::1                      75                       # What read queue length does an incoming req see
system.mem_ctrls.rdQLenPdf::2                       8                       # What read queue length does an incoming req see
system.mem_ctrls.rdQLenPdf::3                       1                       # What read queue length does an incoming req see
system.mem_ctrls.rdQLenPdf::4                       0                       # What read queue length does an incoming req see
system.mem_ctrls.rdQLenPdf::5                       0                       # What read queue length does an incoming req see
system.mem_ctrls.rdQLenPdf::6                       0                       # What read queue length does an incoming req see
system.mem_ctrls.rdQLenPdf::7                       0                       # What read queue length does an incoming req see
system.mem_ctrls.rdQLenPdf::8                       0                       # What read queue length does an incoming req see
system.mem_ctrls.rdQLenPdf::9                       0                       # What read queue length does an incoming req see
system.mem_ctrls.rdQLenPdf::10                      0                       # What read queue length does an incoming req see
system.mem_ctrls.rdQLenPdf::11                      0                       # What read queue length does an incoming req see
system.mem_ctrls.rdQLenPdf::12                      0                       # What read queue length does an incoming req see
system.mem_ctrls.rdQLenPdf::13                      0                       # What read queue length does an incoming req see
system.mem_ctrls.rdQLenPdf::14                      0                       # What read queue length does an incoming req see
system.mem_ctrls.rdQLenPdf::15                      0                       # What read queue length does an incoming req see
system.mem_ctrls.rdQLenPdf::16                      0                       # What read queue length does an incoming req see
system.mem_ctrls.rdQLenPdf::17                      0                       # What read queue length does an incoming req see
system.mem_ctrls.rdQLenPdf::18                      0                       # What read queue length does an incoming req see
system.mem_ctrls.rdQLenPdf::19                      0                       # What read queue length does an incoming req see
system.mem_ctrls.rdQLenPdf::20                      0                       # What read queue length does an incoming req see
system.mem_ctrls.rdQLenPdf::21                      0                       # What read queue length does an incoming req see
system.mem_ctrls.rdQLenPdf::22                      0                       # What read queue length does an incoming req see
system.mem_ctrls.rdQLenPdf::23                      0                       # What read queue length does an incoming req see
system.mem_ctrls.rdQLenPdf::24                      0                       # What read queue length does an incoming req see
system.mem_ctrls.rdQLenPdf::25                      0                       # What read queue length does an incoming req see
system.mem_ctrls.rdQLenPdf::26                      0                       # What read queue length does an incoming req see
system.mem_ctrls.rdQLenPdf::27                      0                       # What read queue length does an incoming req see
system.mem_ctrls.rdQLenPdf::28                      0                       # What read queue length does an incoming req see
system.mem_ctrls.rdQLenPdf::29                      0                       # What read queue length does an incoming req see
system.mem_ctrls.rdQLenPdf::30                      0                       # What read queue length does an incoming req see
system.mem_ctrls.rdQLenPdf::31                      0                       # What read queue length does an incoming req see
system.mem_ctrls.wrQLenPdf::0                       1                       # What write queue length does an incoming req see
system.mem_ctrls.wrQLenPdf::1                       1                       # What write queue length does an incoming req see
system.mem_ctrls.wrQLenPdf::2                       1                       # What write queue length does an incoming req see
system.mem_ctrls.wrQLenPdf::3                       1                       # What write queue length does an incoming req see
system.mem_ctrls.wrQLenPdf::4                       1                       # What write queue length does an incoming req see
system.mem_ctrls.wrQLenPdf::5                       1                       # What write queue length does an incoming req see
system.mem_ctrls.wrQLenPdf::6                       1                       # What write queue length does an incoming req see
system.mem_ctrls.wrQLenPdf::7                       1                       # What write queue length does an incoming req see
system.mem_ctrls.wrQLenPdf::8                       1                       # What write queue length does an incoming req see
system.mem_ctrls.wrQLenPdf::9                       1                       # What write queue length does an incoming req see
system.mem_ctrls.wrQLenPdf::10                      1                       # What write queue length does an incoming req see
system.mem_ctrls.wrQLenPdf::11                      1                       # What write queue length does an incoming req see
system.mem_ctrls.wrQLenPdf::12                      1                       # What write queue length does an incoming req see
system.mem_ctrls.wrQLenPdf::13                      1                       # What write queue length does an incoming req see
system.mem_ctrls.wrQLenPdf::14                      1                       # What write queue length does an incoming req see
system.mem_ctrls.wrQLenPdf::15                  80361                       # What write queue length does an incoming req see
system.mem_ctrls.wrQLenPdf::16                  80443                       # What write queue length does an incoming req see
system.mem_ctrls.wrQLenPdf::17                  82425                       # What write queue length does an incoming req see
system.mem_ctrls.wrQLenPdf::18                  82398                       # What write queue length does an incoming req see
system.mem_ctrls.wrQLenPdf::19                  82407                       # What write queue length does an incoming req see
system.mem_ctrls.wrQLenPdf::20                  82414                       # What write queue length does an incoming req see
system.mem_ctrls.wrQLenPdf::21                  82391                       # What write queue length does an incoming req see
system.mem_ctrls.wrQLenPdf::22                  82436                       # What write queue length does an incoming req see
system.mem_ctrls.wrQLenPdf::23                  82879                       # What write queue length does an incoming req see
system.mem_ctrls.wrQLenPdf::24                  82390                       # What write queue length does an incoming req see
system.mem_ctrls.wrQLenPdf::25                  82390                       # What write queue length does an incoming req see
system.mem_ctrls.wrQLenPdf::26                  82390                       # What write queue length does an incoming req see
system.mem_ctrls.wrQLenPdf::27                  82390                       # What write queue length does an incoming req see
system.mem_ctrls.wrQLenPdf::28                  82390                       # What write queue length does an incoming req see
system.mem_ctrls.wrQLenPdf::29                  82390                       # What write queue length does an incoming req see
system.mem_ctrls.wrQLenPdf::30                  82390                       # What write queue length does an incoming req see
system.mem_ctrls.wrQLenPdf::31                  82390                       # What write queue length does an incoming req see
system.mem_ctrls.wrQLenPdf::32                  82389                       # What write queue length does an incoming req see
system.mem_ctrls.wrQLenPdf::33                      0                       # What write queue length does an incoming req see
system.mem_ctrls.wrQLenPdf::34                      0                       # What write queue length does an incoming req see
system.mem_ctrls.wrQLenPdf::35                      0                       # What write queue length does an incoming req see
system.mem_ctrls.wrQLenPdf::36                      0                       # What write queue length does an incoming req see
system.mem_ctrls.wrQLenPdf::37                      0                       # What write queue length does an incoming req see
system.mem_ctrls.wrQLenPdf::38                      0                       # What write queue length does an incoming req see
system.mem_ctrls.wrQLenPdf::39                      0                       # What write queue length does an incoming req see
system.mem_ctrls.wrQLenPdf::40                      0                       # What write queue length does an incoming req see
system.mem_ctrls.wrQLenPdf::41                      0                       # What write queue length does an incoming req see
system.mem_ctrls.wrQLenPdf::42                      0                       # What write queue length does an incoming req see
system.mem_ctrls.wrQLenPdf::43                      0                       # What write queue length does an incoming req see
system.mem_ctrls.wrQLenPdf::44                      0                       # What write queue length does an incoming req see
system.mem_ctrls.wrQLenPdf::45                      0                       # What write queue length does an incoming req see
system.mem_ctrls.wrQLenPdf::46                      0                       # What write queue length does an incoming req see
system.mem_ctrls.wrQLenPdf::47                      0                       # What write queue length does an incoming req see
system.mem_ctrls.wrQLenPdf::48                      0                       # What write queue length does an incoming req see
system.mem_ctrls.wrQLenPdf::49                      0                       # What write queue length does an incoming req see
system.mem_ctrls.wrQLenPdf::50                      0                       # What write queue length does an incoming req see
system.mem_ctrls.wrQLenPdf::51                      0                       # What write queue length does an incoming req see
system.mem_ctrls.wrQLenPdf::52                      0                       # What write queue length does an incoming req see
system.mem_ctrls.wrQLenPdf::53                      0                       # What write queue length does an incoming req see
system.mem_ctrls.wrQLenPdf::54                      0                       # What write queue length does an incoming req see
system.mem_ctrls.wrQLenPdf::55                      0                       # What write queue length does an incoming req see
system.mem_ctrls.wrQLenPdf::56                      0                       # What write queue length does an incoming req see
system.mem_ctrls.wrQLenPdf::57                      0                       # What write queue length does an incoming req see
system.mem_ctrls.wrQLenPdf::58                      0                       # What write queue length does an incoming req see
system.mem_ctrls.wrQLenPdf::59                      0                       # What write queue length does an incoming req see
system.mem_ctrls.wrQLenPdf::60                      0                       # What write queue length does an incoming req see
system.mem_ctrls.wrQLenPdf::61                      0                       # What write queue length does an incoming req see
system.mem_ctrls.wrQLenPdf::62                      0                       # What write queue length does an incoming req see
system.mem_ctrls.wrQLenPdf::63                      0                       # What write queue length does an incoming req see
system.mem_ctrls.bytesPerActivate::samples       339667                       # Bytes accessed per row activation
system.mem_ctrls.bytesPerActivate::mean    559.248723                       # Bytes accessed per row activation
system.mem_ctrls.bytesPerActivate::gmean   370.392746                       # Bytes accessed per row activation
system.mem_ctrls.bytesPerActivate::stdev   410.780563                       # Bytes accessed per row activation
system.mem_ctrls.bytesPerActivate::0-127        16736      4.93%      4.93% # Bytes accessed per row activation
system.mem_ctrls.bytesPerActivate::128-255       123471     36.35%     41.28% # Bytes accessed per row activation
system.mem_ctrls.bytesPerActivate::256-383        12580      3.70%     44.98% # Bytes accessed per row activation
system.mem_ctrls.bytesPerActivate::384-511        12210      3.59%     48.58% # Bytes accessed per row activation
system.mem_ctrls.bytesPerActivate::512-639        15586      4.59%     53.16% # Bytes accessed per row activation
system.mem_ctrls.bytesPerActivate::640-767        11481      3.38%     56.54% # Bytes accessed per row activation
system.mem_ctrls.bytesPerActivate::768-895        10762      3.17%     59.71% # Bytes accessed per row activation
system.mem_ctrls.bytesPerActivate::896-1023        11592      3.41%     63.13% # Bytes accessed per row activation
system.mem_ctrls.bytesPerActivate::1024-1151       125249     36.87%    100.00% # Bytes accessed per row activation
system.mem_ctrls.bytesPerActivate::total       339667                       # Bytes accessed per row activation
system.mem_ctrls.rdPerTurnAround::samples        82389                       # Reads before turning the bus around for writes
system.mem_ctrls.rdPerTurnAround::mean      18.065955                       # Reads before turning the bus around for writes
system.mem_ctrls.rdPerTurnAround::gmean     17.959520                       # Reads before turning the bus around for writes
system.mem_ctrls.rdPerTurnAround::stdev     23.502559                       # Reads before turning the bus around for writes
system.mem_ctrls.rdPerTurnAround::0-255         82387    100.00%    100.00% # Reads before turning the bus around for writes
system.mem_ctrls.rdPerTurnAround::2048-2303            1      0.00%    100.00% # Reads before turning the bus around for writes
system.mem_ctrls.rdPerTurnAround::6400-6655            1      0.00%    100.00% # Reads before turning the bus around for writes
system.mem_ctrls.rdPerTurnAround::total         82389                       # Reads before turning the bus around for writes
system.mem_ctrls.wrPerTurnAround::samples        82389                       # Writes before turning the bus around for reads
system.mem_ctrls.wrPerTurnAround::mean      17.959279                       # Writes before turning the bus around for reads
system.mem_ctrls.wrPerTurnAround::gmean     17.956318                       # Writes before turning the bus around for reads
[...]
system.cpu.icache.tags.warmup_cycle            108000                       # Cycle when the warmup percentage was hit.
system.cpu.icache.tags.occ_blocks::.cpu.inst   390.948106                       # Average occupied blocks per requestor
system.cpu.icache.tags.occ_percent::.cpu.inst     0.381785                       # Average percentage of cache occupancy
system.cpu.icache.tags.occ_percent::total     0.381785                       # Average percentage of cache occupancy
system.cpu.icache.tags.occ_task_id_blocks::1024          391                       # Occupied blocks per task id
system.cpu.icache.tags.age_task_id_blocks_1024::4          391                       # Occupied blocks per task id
system.cpu.icache.tags.occ_task_id_percent::1024     0.381836                       # Percentage of cache occupancy per task id
system.cpu.icache.tags.tag_accesses           5960064                       # Number of tag accesses
system.cpu.icache.tags.data_accesses          5960064                       # Number of data accesses
system.cpu.dtb.walker.pwrStateResidencyTicks::UNDEFINED 265025944000                       # Cumulative time (in ticks) in various power states
system.cpu.dtb.stage2_mmu.stage2_tlb.walker.pwrStateResidencyTicks::UNDEFINED 265025944000                       # Cumulative time (in ticks) in various power states
system.cpu.dcache.pwrStateResidencyTicks::UNDEFINED 265025944000                       # Cumulative time (in ticks) in various power states
system.cpu.dcache.demand_hits::.cpu.data     45773251                       # number of demand (read+write) hits
system.cpu.dcache.demand_hits::total         45773251                       # number of demand (read+write) hits
system.cpu.dcache.overall_hits::.cpu.data     45773284                       # number of overall hits
system.cpu.dcache.overall_hits::total        45773284                       # number of overall hits
system.cpu.dcache.demand_misses::.cpu.data      3033354                       # number of demand (read+write) misses
system.cpu.dcache.demand_misses::total        3033354                       # number of demand (read+write) misses
system.cpu.dcache.overall_misses::.cpu.data      3033373                       # number of overall misses
system.cpu.dcache.overall_misses::total       3033373                       # number of overall misses
system.cpu.dcache.demand_miss_latency::.cpu.data 305105232000                       # number of demand (read+write) miss cycles
system.cpu.dcache.demand_miss_latency::total 305105232000                       # number of demand (read+write) miss cycles
system.cpu.dcache.overall_miss_latency::.cpu.data 305105232000                       # number of overall miss cycles
system.cpu.dcache.overall_miss_latency::total 305105232000                       # number of overall miss cycles
system.cpu.dcache.demand_accesses::.cpu.data     48806605                       # number of demand (read+write) accesses
system.cpu.dcache.demand_accesses::total     48806605                       # number of demand (read+write) accesses
system.cpu.dcache.overall_accesses::.cpu.data     48806657                       # number of overall (read+write) accesses
system.cpu.dcache.overall_accesses::total     48806657                       # number of overall (read+write) accesses
system.cpu.dcache.demand_miss_rate::.cpu.data     0.062150                       # miss rate for demand accesses
system.cpu.dcache.demand_miss_rate::total     0.062150                       # miss rate for demand accesses
system.cpu.dcache.overall_miss_rate::.cpu.data     0.062151                       # miss rate for overall accesses
system.cpu.dcache.overall_miss_rate::total     0.062151                       # miss rate for overall accesses
system.cpu.dcache.demand_avg_miss_latency::.cpu.data 100583.457124                       # average overall miss latency
system.cpu.dcache.demand_avg_miss_latency::total 100583.457124                       # average overall miss latency
system.cpu.dcache.overall_avg_miss_latency::.cpu.data 100582.827104                       # average overall miss latency
system.cpu.dcache.overall_avg_miss_latency::total 100582.827104                       # average overall miss latency
system.cpu.dcache.blocked_cycles::no_mshrs            0                       # number of cycles access was blocked
system.cpu.dcache.blocked_cycles::no_targets            0                       # number of cycles access was blocked
system.cpu.dcache.blocked::no_mshrs                 0                       # number of cycles access was blocked
system.cpu.dcache.blocked::no_targets               0                       # number of cycles access was blocked
system.cpu.dcache.avg_blocked_cycles::no_mshrs          nan                       # average number of cycles each access was blocked
system.cpu.dcache.avg_blocked_cycles::no_targets          nan                       # average number of cycles each access was blocked
system.cpu.dcache.writebacks::.writebacks      1516429                       # number of writebacks
system.cpu.dcache.writebacks::total           1516429                       # number of writebacks
system.cpu.dcache.demand_mshr_hits::.cpu.data      1504689                       # number of demand (read+write) MSHR hits
system.cpu.dcache.demand_mshr_hits::total      1504689                       # number of demand (read+write) MSHR hits
system.cpu.dcache.overall_mshr_hits::.cpu.data      1504689                       # number of overall MSHR hits
system.cpu.dcache.overall_mshr_hits::total      1504689                       # number of overall MSHR hits
system.cpu.dcache.demand_mshr_misses::.cpu.data      1528665                       # number of demand (read+write) MSHR misses
system.cpu.dcache.demand_mshr_misses::total      1528665                       # number of demand (read+write) MSHR misses
system.cpu.dcache.overall_mshr_misses::.cpu.data      1528681                       # number of overall MSHR misses
system.cpu.dcache.overall_mshr_misses::total      1528681                       # number of overall MSHR misses
system.cpu.dcache.demand_mshr_miss_latency::.cpu.data 158040325000                       # number of demand (read+write) MSHR miss cycles
system.cpu.dcache.demand_mshr_miss_latency::total 158040325000                       # number of demand (read+write) MSHR miss cycles
system.cpu.dcache.overall_mshr_miss_latency::.cpu.data 158042149000                       # number of overall MSHR miss cycles
system.cpu.dcache.overall_mshr_miss_latency::total 158042149000                       # number of overall MSHR miss cycles
system.cpu.dcache.demand_mshr_miss_rate::.cpu.data     0.031321                       # mshr miss rate for demand accesses
system.cpu.dcache.demand_mshr_miss_rate::total     0.031321                       # mshr miss rate for demand accesses
system.cpu.dcache.overall_mshr_miss_rate::.cpu.data     0.031321                       # mshr miss rate for overall accesses
system.cpu.dcache.overall_mshr_miss_rate::total     0.031321                       # mshr miss rate for overall accesses
system.cpu.dcache.demand_avg_mshr_miss_latency::.cpu.data 103384.538143                       # average overall mshr miss latency
system.cpu.dcache.demand_avg_mshr_miss_latency::total 103384.538143                       # average overall mshr miss latency
system.cpu.dcache.overall_avg_mshr_miss_latency::.cpu.data 103384.649250                       # average overall mshr miss latency
system.cpu.dcache.overall_avg_mshr_miss_latency::total 103384.649250                       # average overall mshr miss latency
system.cpu.dcache.replacements                1528169                       # number of replacements
system.cpu.dcache.ReadReq_hits::.cpu.data     35687635                       # number of ReadReq hits
system.cpu.dcache.ReadReq_hits::total        35687635                       # number of ReadReq hits
system.cpu.dcache.ReadReq_misses::.cpu.data        23379                       # number of ReadReq misses
system.cpu.dcache.ReadReq_misses::total         23379                       # number of ReadReq misses
system.cpu.dcache.ReadReq_miss_latency::.cpu.data   1069242000                       # number of ReadReq miss cycles
system.cpu.dcache.ReadReq_miss_latency::total   1069242000                       # number of ReadReq miss cycles
system.cpu.dcache.ReadReq_accesses::.cpu.data     35711014                       # number of ReadReq accesses(hits+misses)
system.cpu.dcache.ReadReq_accesses::total     35711014                       # number of ReadReq accesses(hits+misses)
system.cpu.dcache.ReadReq_miss_rate::.cpu.data     0.000655                       # miss rate for ReadReq accesses
system.cpu.dcache.ReadReq_miss_rate::total     0.000655                       # miss rate for ReadReq accesses
system.cpu.dcache.ReadReq_avg_miss_latency::.cpu.data 45735.146927                       # average ReadReq miss latency
system.cpu.dcache.ReadReq_avg_miss_latency::total 45735.146927                       # average ReadReq miss latency
system.cpu.dcache.ReadReq_mshr_hits::.cpu.data            5                       # number of ReadReq MSHR hits
system.cpu.dcache.ReadReq_mshr_hits::total            5                       # number of ReadReq MSHR hits
system.cpu.dcache.ReadReq_mshr_misses::.cpu.data        23374                       # number of ReadReq MSHR misses
system.cpu.dcache.ReadReq_mshr_misses::total        23374                       # number of ReadReq MSHR misses
system.cpu.dcache.ReadReq_mshr_miss_latency::.cpu.data   1021956000                       # number of ReadReq MSHR miss cycles
system.cpu.dcache.ReadReq_mshr_miss_latency::total   1021956000                       # number of ReadReq MSHR miss cycles
system.cpu.dcache.ReadReq_mshr_miss_rate::.cpu.data     0.000655                       # mshr miss rate for ReadReq accesses
system.cpu.dcache.ReadReq_mshr_miss_rate::total     0.000655                       # mshr miss rate for ReadReq accesses
system.cpu.dcache.ReadReq_avg_mshr_miss_latency::.cpu.data 43721.913237                       # average ReadReq mshr miss latency
system.cpu.dcache.ReadReq_avg_mshr_miss_latency::total 43721.913237                       # average ReadReq mshr miss latency
system.cpu.dcache.WriteReq_hits::.cpu.data     10085616                       # number of WriteReq hits
system.cpu.dcache.WriteReq_hits::total       10085616                       # number of WriteReq hits
system.cpu.dcache.WriteReq_misses::.cpu.data      3009975                       # number of WriteReq misses
system.cpu.dcache.WriteReq_misses::total      3009975                       # number of WriteReq misses
system.cpu.dcache.WriteReq_miss_latency::.cpu.data 304035990000                       # number of WriteReq miss cycles
system.cpu.dcache.WriteReq_miss_latency::total 304035990000                       # number of WriteReq miss cycles
system.cpu.dcache.WriteReq_accesses::.cpu.data     13095591                       # number of WriteReq accesses(hits+misses)
system.cpu.dcache.WriteReq_accesses::total     13095591                       # number of WriteReq accesses(hits+misses)
system.cpu.dcache.WriteReq_miss_rate::.cpu.data     0.229846                       # miss rate for WriteReq accesses
system.cpu.dcache.WriteReq_miss_rate::total     0.229846                       # miss rate for WriteReq accesses
system.cpu.dcache.WriteReq_avg_miss_latency::.cpu.data 101009.473501                       # average WriteReq miss latency
system.cpu.dcache.WriteReq_avg_miss_latency::total 101009.473501                       # average WriteReq miss latency
system.cpu.dcache.WriteReq_mshr_hits::.cpu.data      1504684                       # number of WriteReq MSHR hits
system.cpu.dcache.WriteReq_mshr_hits::total      1504684                       # number of WriteReq MSHR hits
system.cpu.dcache.WriteReq_mshr_misses::.cpu.data      1505291                       # number of WriteReq MSHR misses
system.cpu.dcache.WriteReq_mshr_misses::total      1505291                       # number of WriteReq MSHR misses
system.cpu.dcache.WriteReq_mshr_miss_latency::.cpu.data 157018369000                       # number of WriteReq MSHR miss cycles
system.cpu.dcache.WriteReq_mshr_miss_latency::total 157018369000                       # number of WriteReq MSHR miss cycles
system.cpu.dcache.WriteReq_mshr_miss_rate::.cpu.data     0.114946                       # mshr miss rate for WriteReq accesses
system.cpu.dcache.WriteReq_mshr_miss_rate::total     0.114946                       # mshr miss rate for WriteReq accesses
system.cpu.dcache.WriteReq_avg_mshr_miss_latency::.cpu.data 104310.973094                       # average WriteReq mshr miss latency
system.cpu.dcache.WriteReq_avg_mshr_miss_latency::total 104310.973094                       # average WriteReq mshr miss latency
system.cpu.dcache.SoftPFReq_hits::.cpu.data           33                       # number of SoftPFReq hits
system.cpu.dcache.SoftPFReq_hits::total            33                       # number of SoftPFReq hits
system.cpu.dcache.SoftPFReq_misses::.cpu.data           19                       # number of SoftPFReq misses
system.cpu.dcache.SoftPFReq_misses::total           19                       # number of SoftPFReq misses
system.cpu.dcache.SoftPFReq_accesses::.cpu.data           52                       # number of SoftPFReq accesses(hits+misses)
system.cpu.dcache.SoftPFReq_accesses::total           52                       # number of SoftPFReq accesses(hits+misses)
system.cpu.dcache.SoftPFReq_miss_rate::.cpu.data     0.365385                       # miss rate for SoftPFReq accesses
system.cpu.dcache.SoftPFReq_miss_rate::total     0.365385                       # miss rate for SoftPFReq accesses
system.cpu.dcache.SoftPFReq_mshr_misses::.cpu.data           16                       # number of SoftPFReq MSHR misses
system.cpu.dcache.SoftPFReq_mshr_misses::total           16                       # number of SoftPFReq MSHR misses
system.cpu.dcache.SoftPFReq_mshr_miss_latency::.cpu.data      1824000                       # number of SoftPFReq MSHR miss cycles
system.cpu.dcache.SoftPFReq_mshr_miss_latency::total      1824000                       # number of SoftPFReq MSHR miss cycles
system.cpu.dcache.SoftPFReq_mshr_miss_rate::.cpu.data     0.307692                       # mshr miss rate for SoftPFReq accesses
system.cpu.dcache.SoftPFReq_mshr_miss_rate::total     0.307692                       # mshr miss rate for SoftPFReq accesses
system.cpu.dcache.SoftPFReq_avg_mshr_miss_latency::.cpu.data       114000                       # average SoftPFReq mshr miss latency
system.cpu.dcache.SoftPFReq_avg_mshr_miss_latency::total       114000                       # average SoftPFReq mshr miss latency
system.cpu.dcache.LoadLockedReq_hits::.cpu.data           13                       # number of LoadLockedReq hits
system.cpu.dcache.LoadLockedReq_hits::total           13                       # number of LoadLockedReq hits
system.cpu.dcache.LoadLockedReq_misses::.cpu.data            1                       # number of LoadLockedReq misses
system.cpu.dcache.LoadLockedReq_misses::total            1                       # number of LoadLockedReq misses
system.cpu.dcache.LoadLockedReq_miss_latency::.cpu.data        26000                       # number of LoadLockedReq miss cycles
system.cpu.dcache.LoadLockedReq_miss_latency::total        26000                       # number of LoadLockedReq miss cycles
system.cpu.dcache.LoadLockedReq_accesses::.cpu.data           14                       # number of LoadLockedReq accesses(hits+misses)
system.cpu.dcache.LoadLockedReq_accesses::total           14                       # number of LoadLockedReq accesses(hits+misses)
system.cpu.dcache.LoadLockedReq_miss_rate::.cpu.data     0.071429                       # miss rate for LoadLockedReq accesses
system.cpu.dcache.LoadLockedReq_miss_rate::total     0.071429                       # miss rate for LoadLockedReq accesses
system.cpu.dcache.LoadLockedReq_avg_miss_latency::.cpu.data        26000                       # average LoadLockedReq miss latency
system.cpu.dcache.LoadLockedReq_avg_miss_latency::total        26000                       # average LoadLockedReq miss latency
system.cpu.dcache.LoadLockedReq_mshr_misses::.cpu.data            1                       # number of LoadLockedReq MSHR misses
system.cpu.dcache.LoadLockedReq_mshr_misses::total            1                       # number of LoadLockedReq MSHR misses
system.cpu.dcache.LoadLockedReq_mshr_miss_latency::.cpu.data        24000                       # number of LoadLockedReq MSHR miss cycles
system.cpu.dcache.LoadLockedReq_mshr_miss_latency::total        24000                       # number of LoadLockedReq MSHR miss cycles
system.cpu.dcache.LoadLockedReq_mshr_miss_rate::.cpu.data     0.071429                       # mshr miss rate for LoadLockedReq accesses
system.cpu.dcache.LoadLockedReq_mshr_miss_rate::total     0.071429                       # mshr miss rate for LoadLockedReq accesses
system.cpu.dcache.LoadLockedReq_avg_mshr_miss_latency::.cpu.data        24000                       # average LoadLockedReq mshr miss latency
system.cpu.dcache.LoadLockedReq_avg_mshr_miss_latency::total        24000                       # average LoadLockedReq mshr miss latency
system.cpu.dcache.StoreCondReq_hits::.cpu.data           14                       # number of StoreCondReq hits
system.cpu.dcache.StoreCondReq_hits::total           14                       # number of StoreCondReq hits
system.cpu.dcache.StoreCondReq_accesses::.cpu.data           14                       # number of StoreCondReq accesses(hits+misses)
system.cpu.dcache.StoreCondReq_accesses::total           14                       # number of StoreCondReq accesses(hits+misses)
system.cpu.dcache.tags.pwrStateResidencyTicks::UNDEFINED 265025944000                       # Cumulative time (in ticks) in various power states
system.cpu.dcache.tags.tagsinuse           511.805245                       # Cycle average of tags in use
system.cpu.dcache.tags.total_refs            47301992                       # Total number of references to valid blocks.
system.cpu.dcache.tags.sampled_refs           1528681                       # Sample count of references to valid blocks.
system.cpu.dcache.tags.avg_refs             30.943010                       # Average number of references to valid blocks.
system.cpu.dcache.tags.warmup_cycle            223000                       # Cycle when the warmup percentage was hit.
system.cpu.dcache.tags.occ_blocks::.cpu.data   511.805245                       # Average occupied blocks per requestor
system.cpu.dcache.tags.occ_percent::.cpu.data     0.999620                       # Average percentage of cache occupancy
system.cpu.dcache.tags.occ_percent::total     0.999620                       # Average percentage of cache occupancy
system.cpu.dcache.tags.occ_task_id_blocks::1024          512                       # Occupied blocks per task id
system.cpu.dcache.tags.age_task_id_blocks_1024::0           57                       # Occupied blocks per task id
system.cpu.dcache.tags.age_task_id_blocks_1024::1          455                       # Occupied blocks per task id
system.cpu.dcache.tags.occ_task_id_percent::1024            1                       # Percentage of cache occupancy per task id
system.cpu.dcache.tags.tag_accesses          50335366                       # Number of tag accesses
system.cpu.dcache.tags.data_accesses         50335366                       # Number of data accesses
system.cpu.itb.walker.pwrStateResidencyTicks::UNDEFINED 265025944000                       # Cumulative time (in ticks) in various power states
system.cpu.itb.stage2_mmu.stage2_tlb.walker.pwrStateResidencyTicks::UNDEFINED 265025944000                       # Cumulative time (in ticks) in various power states

---------- End Simulation Statistics   ----------
