
---------- Begin Simulation Statistics ----------
final_tick                                   45396000                       # Number of ticks from beginning of simulation (restored from checkpoints and never reset)
host_inst_rate                                 601474                       # Simulator instruction rate (inst/s)
host_mem_usage                                 674144                       # Number of bytes of host memory used
host_op_rate                                   712277                       # Simulator op (including micro ops) rate (op/s)
host_seconds                                     0.02                       # Real time elapsed on the host
host_tick_rate                             2061460457                       # Simulator tick rate (ticks/s)
sim_freq                                 1000000000000                       # Frequency of simulated ticks
sim_insts                                       13196                       # Number of instructions simulated
sim_ops                                         15678                       # Number of ops (including micro ops) simulated
sim_seconds                                  0.000045                       # Number of seconds simulated
sim_ticks                                    45396000                       # Number of ticks simulated
system.cpu.Branches                              2776                       # Number of branches fetched
system.cpu.committedInsts                       13196                       # Number of instructions committed
system.cpu.committedOps                         15678                       # Number of ops (including micro ops) committed
system.cpu.dtb.accesses                             0                       # DTB accesses
system.cpu.dtb.align_faults                         0                       # Number of TLB faults due to alignment restrictions
system.cpu.dtb.domain_faults                        0                       # Number of TLB faults due to domain restrictions
system.cpu.dtb.flush_entries                        0                       # Number of entries that have been flushed from TLB
system.cpu.dtb.flush_tlb                            0                       # Number of times complete TLB was flushed
system.cpu.dtb.flush_tlb_asid                       0                       # Number of times TLB was flushed by ASID
system.cpu.dtb.flush_tlb_mva                        0                       # Number of times TLB was flushed by MVA
system.cpu.dtb.flush_tlb_mva_asid                   0                       # Number of times TLB was flushed by MVA & ASID
system.cpu.dtb.hits                                 0                       # DTB hits
system.cpu.dtb.inst_accesses                        0                       # ITB inst accesses
system.cpu.dtb.inst_hits                            0                       # ITB inst hits
system.cpu.dtb.inst_misses                          0                       # ITB inst misses
system.cpu.dtb.misses                               0                       # DTB misses
system.cpu.dtb.perms_faults                         0                       # Number of TLB faults due to permissions restrictions
system.cpu.dtb.prefetch_faults                      0                       # Number of TLB faults due to prefetch
system.cpu.dtb.read_accesses                        0                       # DTB read accesses
system.cpu.dtb.read_hits                            0                       # DTB read hits
system.cpu.dtb.read_misses                          0                       # DTB read misses
system.cpu.dtb.stage2_mmu.stage2_tlb.accesses            0                       # DTB accesses
system.cpu.dtb.stage2_mmu.stage2_tlb.align_faults            0                       # Number of TLB faults due to alignment restrictions
system.cpu.dtb.stage2_mmu.stage2_tlb.domain_faults            0                       # Number of TLB faults due to domain restrictions
system.cpu.dtb.stage2_mmu.stage2_tlb.flush_entries            0                       # Number of entries that have been flushed from TLB
system.cpu.dtb.stage2_mmu.stage2_tlb.flush_tlb            0                       # Number of times complete TLB was flushed
system.cpu.dtb.stage2_mmu.stage2_tlb.flush_tlb_asid            0                       # Number of times TLB was flushed by ASID
system.cpu.dtb.stage2_mmu.stage2_tlb.flush_tlb_mva            0                       # Number of times TLB was flushed by MVA
system.cpu.dtb.stage2_mmu.stage2_tlb.flush_tlb_mva_asid            0                       # Number of times TLB was flushed by MVA & ASID
system.cpu.dtb.stage2_mmu.stage2_tlb.hits            0                       # DTB hits
system.cpu.dtb.stage2_mmu.stage2_tlb.inst_accesses            0                       # ITB inst accesses
system.cpu.dtb.stage2_mmu.stage2_tlb.inst_hits            0                       # ITB inst hits
system.cpu.dtb.stage2_mmu.stage2_tlb.inst_misses            0                       # ITB inst misses
system.cpu.dtb.stage2_mmu.stage2_tlb.misses            0                       # DTB misses
system.cpu.dtb.stage2_mmu.stage2_tlb.perms_faults            0                       # Number of TLB faults due to permissions restrictions
system.cpu.dtb.stage2_mmu.stage2_tlb.prefetch_faults            0                       # Number of TLB faults due to prefetch
system.cpu.dtb.stage2_mmu.stage2_tlb.read_accesses            0                       # DTB read accesses
system.cpu.dtb.stage2_mmu.stage2_tlb.read_hits            0                       # DTB read hits
system.cpu.dtb.stage2_mmu.stage2_tlb.read_misses            0                       # DTB read misses
system.cpu.dtb.stage2_mmu.stage2_tlb.walker.walkRequestOrigin_Requested::Data            0                       # Table walker requests started/completed, data/inst
system.cpu.dtb.stage2_mmu.stage2_tlb.walker.walkRequestOrigin_Requested::Inst            0                       # Table walker requests started/completed, data/inst
system.cpu.dtb.stage2_mmu.stage2_tlb.walker.walkRequestOrigin_Requested::total            0                       # Table walker requests started/completed, data/inst
system.cpu.dtb.stage2_mmu.stage2_tlb.walker.walkRequestOrigin_Completed::Data            0                       # Table walker requests started/completed, data/inst
system.cpu.dtb.stage2_mmu.stage2_tlb.walker.walkRequestOrigin_Completed::Inst            0                       # Table walker requests started/completed, data/inst
system.cpu.dtb.stage2_mmu.stage2_tlb.walker.walkRequestOrigin_Completed::total            0                       # Table walker requests started/completed, data/inst
system.cpu.dtb.stage2_mmu.stage2_tlb.walker.walkRequestOrigin::total            0                       # Table walker requests started/completed, data/inst
system.cpu.dtb.stage2_mmu.stage2_tlb.walker.walks            0                       # Table walker walks requested
system.cpu.dtb.stage2_mmu.stage2_tlb.write_accesses            0                       # DTB write accesses
system.cpu.dtb.stage2_mmu.stage2_tlb.write_hits            0                       # DTB write hits
system.cpu.dtb.stage2_mmu.stage2_tlb.write_misses            0                       # DTB write misses
system.cpu.dtb.walker.walkRequestOrigin_Requested::Data            0                       # Table walker requests started/completed, data/inst
system.cpu.dtb.walker.walkRequestOrigin_Requested::Inst            0                       # Table walker requests started/completed, data/inst
system.cpu.dtb.walker.walkRequestOrigin_Requested::total            0                       # Table walker requests started/completed, data/inst
system.cpu.dtb.walker.walkRequestOrigin_Completed::Data            0                       # Table walker requests started/completed, data/inst
system.cpu.dtb.walker.walkRequestOrigin_Completed::Inst            0                       # Table walker requests started/completed, data/inst
system.cpu.dtb.walker.walkRequestOrigin_Completed::total            0                       # Table walker requests started/completed, data/inst
system.cpu.dtb.walker.walkRequestOrigin::total            0                       # Table walker requests started/completed, data/inst
system.cpu.dtb.walker.walks                         0                       # Table walker walks requested
system.cpu.dtb.write_accesses                       0                       # DTB write accesses
system.cpu.dtb.write_hits                           0                       # DTB write hits
system.cpu.dtb.write_misses                         0                       # DTB write misses
system.cpu.idle_fraction                     0.000000                       # Percentage of idle cycles
system.cpu.itb.accesses                             0                       # DTB accesses
system.cpu.itb.align_faults                         0                       # Number of TLB faults due to alignment restrictions
system.cpu.itb.domain_faults                        0                       # Number of TLB faults due to domain restrictions
system.cpu.itb.flush_entries                        0                       # Number of entries that have been flushed from TLB
system.cpu.itb.flush_tlb                            0                       # Number of times complete TLB was flushed
system.cpu.itb.flush_tlb_asid                       0                       # Number of times TLB was flushed by ASID
system.cpu.itb.flush_tlb_mva                        0                       # Number of times TLB was flushed by MVA
system.cpu.itb.flush_tlb_mva_asid                   0                       # Number of times TLB was flushed by MVA & ASID
system.cpu.itb.hits                                 0                       # DTB hits
system.cpu.itb.inst_accesses                        0                       # ITB inst accesses
system.cpu.itb.inst_hits                            0                       # ITB inst hits
system.cpu.itb.inst_misses                          0                       # ITB inst misses
system.cpu.itb.misses                               0                       # DTB misses
system.cpu.itb.perms_faults                         0                       # Number of TLB faults due to permissions restrictions
system.cpu.itb.prefetch_faults                      0                       # Number of TLB faults due to prefetch
system.cpu.itb.read_accesses                        0                       # DTB read accesses
system.cpu.itb.read_hits                            0                       # DTB read hits
system.cpu.itb.read_misses                          0                       # DTB read misses
system.cpu.itb.stage2_mmu.stage2_tlb.accesses            0                       # DTB accesses
system.cpu.itb.stage2_mmu.stage2_tlb.align_faults            0                       # Number of TLB faults due to alignment restrictions
system.cpu.itb.stage2_mmu.stage2_tlb.domain_faults            0                       # Number of TLB faults due to domain restrictions
system.cpu.itb.stage2_mmu.stage2_tlb.flush_entries            0                       # Number of entries that have been flushed from TLB
system.cpu.itb.stage2_mmu.stage2_tlb.flush_tlb            0                       # Number of times complete TLB was flushed
system.cpu.itb.stage2_mmu.stage2_tlb.flush_tlb_asid            0                       # Number of times TLB was flushed by ASID
system.cpu.itb.stage2_mmu.stage2_tlb.flush_tlb_mva            0                       # Number of times TLB was flushed by MVA
system.cpu.itb.stage2_mmu.stage2_tlb.flush_tlb_mva_asid            0                       # Number of times TLB was flushed by MVA & ASID
system.cpu.itb.stage2_mmu.stage2_tlb.hits            0                       # DTB hits
system.cpu.itb.stage2_mmu.stage2_tlb.inst_accesses            0                       # ITB inst accesses
system.cpu.itb.stage2_mmu.stage2_tlb.inst_hits            0                       # ITB inst hits
system.cpu.itb.stage2_mmu.stage2_tlb.inst_misses            0                       # ITB inst misses
system.cpu.itb.stage2_mmu.stage2_tlb.misses            0                       # DTB misses
system.cpu.itb.stage2_mmu.stage2_tlb.perms_faults            0                       # Number of TLB faults due to permissions restrictions
system.cpu.itb.stage2_mmu.stage2_tlb.prefetch_faults            0                       # Number of TLB faults due to prefetch
system.cpu.itb.stage2_mmu.stage2_tlb.read_accesses            0                       # DTB read accesses
system.cpu.itb.stage2_mmu.stage2_tlb.read_hits            0                       # DTB read hits
system.cpu.itb.stage2_mmu.stage2_tlb.read_misses            0                       # DTB read misses
system.cpu.itb.stage2_mmu.stage2_tlb.walker.walkRequestOrigin_Requested::Data            0                       # Table walker requests started/completed, data/inst
system.cpu.itb.stage2_mmu.stage2_tlb.walker.walkRequestOrigin_Requested::Inst            0                       # Table walker requests started/completed, data/inst
system.cpu.itb.stage2_mmu.stage2_tlb.walker.walkRequestOrigin_Requested::total            0                       # Table walker requests started/completed, data/inst
system.cpu.itb.stage2_mmu.stage2_tlb.walker.walkRequestOrigin_Completed::Data            0                       # Table walker requests started/completed, data/inst
system.cpu.itb.stage2_mmu.stage2_tlb.walker.walkRequestOrigin_Completed::Inst            0                       # Table walker requests started/completed, data/inst
system.cpu.itb.stage2_mmu.stage2_tlb.walker.walkRequestOrigin_Completed::total            0                       # Table walker requests started/completed, data/inst
system.cpu.itb.stage2_mmu.stage2_tlb.walker.walkRequestOrigin::total            0                       # Table walker requests started/completed, data/inst
system.cpu.itb.stage2_mmu.stage2_tlb.walker.walks            0                       # Table walker walks requested
system.cpu.itb.stage2_mmu.stage2_tlb.write_accesses            0                       # DTB write accesses
system.cpu.itb.stage2_mmu.stage2_tlb.write_hits            0                       # DTB write hits
system.cpu.itb.stage2_mmu.stage2_tlb.write_misses            0                       # DTB write misses
system.cpu.itb.walker.walkRequestOrigin_Requested::Data            0                       # Table walker requests started/completed, data/inst
system.cpu.itb.walker.walkRequestOrigin_Requested::Inst            0                       # Table walker requests started/completed, data/inst
system.cpu.itb.walker.walkRequestOrigin_Requested::total            0                       # Table walker requests started/completed, data/inst
system.cpu.itb.walker.walkRequestOrigin_Completed::Data            0                       # Table walker requests started/completed, data/inst
system.cpu.itb.walker.walkRequestOrigin_Completed::Inst            0                       # Table walker requests started/completed, data/inst
system.cpu.itb.walker.walkRequestOrigin_Completed::total            0                       # Table walker requests started/completed, data/inst
system.cpu.itb.walker.walkRequestOrigin::total            0                       # Table walker requests started/completed, data/inst
system.cpu.itb.walker.walks                         0                       # Table walker walks requested
system.cpu.itb.write_accesses                       0                       # DTB write accesses
system.cpu.itb.write_hits                           0                       # DTB write hits
system.cpu.itb.write_misses                         0                       # DTB write misses
system.cpu.not_idle_fraction                 1.000000                       # Percentage of non-idle cycles
system.cpu.numCycles                            90792                       # number of cpu cycles simulated
system.cpu.numWorkItemsCompleted                    0                       # number of work items this cpu completed
system.cpu.numWorkItemsStarted                      0                       # number of work items this cpu started
system.cpu.num_busy_cycles               90791.998000                       # Number of busy cycles
system.cpu.num_cc_register_reads                54257                       # number of times the CC registers were read
system.cpu.num_cc_register_writes                8707                       # number of times the CC registers were written
system.cpu.num_conditional_control_insts         1783                       # number of instructions that are conditional controls
system.cpu.num_fp_alu_accesses                      0                       # Number of float alu accesses
system.cpu.num_fp_insts                             0                       # number of float instructions
system.cpu.num_fp_register_reads                    0                       # number of times the floating registers were read
system.cpu.num_fp_register_writes                   0                       # number of times the floating registers were written
system.cpu.num_func_calls                         712                       # number of times a function call or return occured
system.cpu.num_idle_cycles                   0.002000                       # Number of idle cycles
system.cpu.num_int_alu_accesses                 13769                       # Number of integer alu accesses
system.cpu.num_int_insts                        13769                       # number of integer instructions
system.cpu.num_int_register_reads               21935                       # number of times the integer registers were read
system.cpu.num_int_register_writes               9806                       # number of times the integer registers were written
system.cpu.num_load_insts                        2478                       # Number of load instructions
system.cpu.num_mem_refs                          4884                       # number of memory refs
system.cpu.num_store_insts                       2406                       # Number of store instructions
system.cpu.num_vec_alu_accesses                     0                       # Number of vector alu accesses
system.cpu.num_vec_insts                            0                       # number of vector instructions
system.cpu.num_vec_register_reads                  40                       # number of times the vector registers were read
system.cpu.num_vec_register_writes                 13                       # number of times the vector registers were written
system.cpu.op_class::No_OpClass                     0      0.00%      0.00% # Class of executed instruction
system.cpu.op_class::IntAlu                     10825     68.60%     68.60% # Class of executed instruction
system.cpu.op_class::IntMult                       49      0.31%     68.91% # Class of executed instruction
system.cpu.op_class::IntDiv                         0      0.00%     68.91% # Class of executed instruction
system.cpu.op_class::FloatAdd                       0      0.00%     68.91% # Class of executed instruction
system.cpu.op_class::FloatCmp                       0      0.00%     68.91% # Class of executed instruction
system.cpu.op_class::FloatCvt                       0      0.00%     68.91% # Class of executed instruction
system.cpu.op_class::FloatMult                      0      0.00%     68.91% # Class of executed instruction
system.cpu.op_class::FloatMultAcc                   0      0.00%     68.91% # Class of executed instruction
system.cpu.op_class::FloatDiv                       0      0.00%     68.91% # Class of executed instruction
system.cpu.op_class::FloatMisc                      0      0.00%     68.91% # Class of executed instruction
system.cpu.op_class::FloatSqrt                      0      0.00%     68.91% # Class of executed instruction
system.cpu.op_class::SimdAdd                        0      0.00%     68.91% # Class of executed instruction
system.cpu.op_class::SimdAddAcc                     0      0.00%     68.91% # Class of executed instruction
system.cpu.op_class::SimdAlu                        0      0.00%     68.91% # Class of executed instruction
system.cpu.op_class::SimdCmp                        0      0.00%     68.91% # Class of executed instruction
system.cpu.op_class::SimdCvt                        0      0.00%     68.91% # Class of executed instruction
system.cpu.op_class::SimdMisc                       0      0.00%     68.91% # Class of executed instruction
system.cpu.op_class::SimdMult                       0      0.00%     68.91% # Class of executed instruction
system.cpu.op_class::SimdMultAcc                    0      0.00%     68.91% # Class of executed instruction
system.cpu.op_class::SimdShift                      0      0.00%     68.91% # Class of executed instruction
system.cpu.op_class::SimdShiftAcc                   0      0.00%     68.91% # Class of executed instruction
system.cpu.op_class::SimdDiv                        0      0.00%     68.91% # Class of executed instruction
system.cpu.op_class::SimdSqrt                       0      0.00%     68.91% # Class of executed instruction
system.cpu.op_class::SimdFloatAdd                   0      0.00%     68.91% # Class of executed instruction
system.cpu.op_class::SimdFloatAlu                   0      0.00%     68.91% # Class of executed instruction
system.cpu.op_class::SimdFloatCmp                   0      0.00%     68.91% # Class of executed instruction
system.cpu.op_class::SimdFloatCvt                   0      0.00%     68.91% # Class of executed instruction
system.cpu.op_class::SimdFloatDiv                   0      0.00%     68.91% # Class of executed instruction
system.cpu.op_class::SimdFloatMisc                 21      0.13%     69.05% # Class of executed instruction
system.cpu.op_class::SimdFloatMult                  0      0.00%     69.05% # Class of executed instruction
system.cpu.op_class::SimdFloatMultAcc               0      0.00%     69.05% # Class of executed instruction
system.cpu.op_class::SimdFloatSqrt                  0      0.00%     69.05% # Class of executed instruction
system.cpu.op_class::SimdReduceAdd                  0      0.00%     69.05% # Class of executed instruction
system.cpu.op_class::SimdReduceAlu                  0      0.00%     69.05% # Class of executed instruction
system.cpu.op_class::SimdReduceCmp                  0      0.00%     69.05% # Class of executed instruction
system.cpu.op_class::SimdFloatReduceAdd             0      0.00%     69.05% # Class of executed instruction
system.cpu.op_class::SimdFloatReduceCmp             0      0.00%     69.05% # Class of executed instruction
system.cpu.op_class::SimdAes                        0      0.00%     69.05% # Class of executed instruction
system.cpu.op_class::SimdAesMix                     0      0.00%     69.05% # Class of executed instruction
system.cpu.op_class::SimdSha1Hash                   0      0.00%     69.05% # Class of executed instruction
system.cpu.op_class::SimdSha1Hash2                  0      0.00%     69.05% # Class of executed instruction
system.cpu.op_class::SimdSha256Hash                 0      0.00%     69.05% # Class of executed instruction
system.cpu.op_class::SimdSha256Hash2                0      0.00%     69.05% # Class of executed instruction
system.cpu.op_class::SimdShaSigma2                  0      0.00%     69.05% # Class of executed instruction
system.cpu.op_class::SimdShaSigma3                  0      0.00%     69.05% # Class of executed instruction
system.cpu.op_class::SimdPredAlu                    0      0.00%     69.05% # Class of executed instruction
system.cpu.op_class::MemRead                     2478     15.70%     84.75% # Class of executed instruction
system.cpu.op_class::MemWrite                    2406     15.25%    100.00% # Class of executed instruction
system.cpu.op_class::FloatMemRead                   0      0.00%    100.00% # Class of executed instruction
system.cpu.op_class::FloatMemWrite                  0      0.00%    100.00% # Class of executed instruction
system.cpu.op_class::IprAccess                      0      0.00%    100.00% # Class of executed instruction
system.cpu.op_class::InstPrefetch                   0      0.00%    100.00% # Class of executed instruction
system.cpu.op_class::total                      15779                       # Class of executed instruction
system.cpu.workload.numSyscalls                    10                       # Number of system calls
system.membus.snoop_filter.hit_multi_requests            3                       # Number of requests hitting in the snoop filter with multiple (>1) holders of the requested data.
system.membus.snoop_filter.hit_multi_snoops            0                       # Number of snoops hitting in the snoop filter with multiple (>1) holders of the requested data.
system.membus.snoop_filter.hit_single_requests           47                       # Number of requests hitting in the snoop filter with a single holder of the requested data.
system.membus.snoop_filter.hit_single_snoops            0                       # Number of snoops hitting in the snoop filter with a single holder of the requested data.
system.membus.snoop_filter.tot_requests           490                       # Total number of requests made to the snoop filter.
system.membus.snoop_filter.tot_snoops               0                       # Total number of snoops made to the snoop filter.
system.membus.pwrStateResidencyTicks::UNDEFINED     45396000                       # Cumulative time (in ticks) in various power states
system.membus.trans_dist::ReadResp                384                       # Transaction distribution
system.membus.trans_dist::WritebackClean           34                       # Transaction distribution
system.membus.trans_dist::CleanEvict                1                       # Transaction distribution
system.membus.trans_dist::ReadExReq                71                       # Transaction distribution
system.membus.trans_dist::ReadExResp               71                       # Transaction distribution
system.membus.trans_dist::ReadCleanReq            285                       # Transaction distribution
system.membus.trans_dist::ReadSharedReq            99                       # Transaction distribution
system.membus.pkt_count_system.cpu.icache.mem_side::system.mem_ctrls.port          604                       # Packet count per connected master and slave (bytes)
system.membus.pkt_count_system.cpu.dcache.mem_side::system.mem_ctrls.port          341                       # Packet count per connected master and slave (bytes)
system.membus.pkt_count::total                    945                       # Packet count per connected master and slave (bytes)
system.membus.pkt_size_system.cpu.icache.mem_side::system.mem_ctrls.port        20416                       # Cumulative packet size per connected master and slave (bytes)
system.membus.pkt_size_system.cpu.dcache.mem_side::system.mem_ctrls.port        10880                       # Cumulative packet size per connected master and slave (bytes)
system.membus.pkt_size::total                   31296                       # Cumulative packet size per connected master and slave (bytes)
system.membus.snoops                                0                       # Total snoops (count)
system.membus.snoopTraffic                          0                       # Total snoop traffic (bytes)
system.membus.snoop_fanout::samples               455                       # Request fanout histogram
system.membus.snoop_fanout::mean             0.032967                       # Request fanout histogram
system.membus.snoop_fanout::stdev            0.178747                       # Request fanout histogram
system.membus.snoop_fanout::underflows              0      0.00%      0.00% # Request fanout histogram
system.membus.snoop_fanout::0                     440     96.70%     96.70% # Request fanout histogram
system.membus.snoop_fanout::1                      15      3.30%    100.00% # Request fanout histogram
system.membus.snoop_fanout::2                       0      0.00%    100.00% # Request fanout histogram
system.membus.snoop_fanout::overflows               0      0.00%    100.00% # Request fanout histogram
system.membus.snoop_fanout::min_value               0                       # Request fanout histogram
system.membus.snoop_fanout::max_value               1                       # Request fanout histogram
system.membus.snoop_fanout::total                 455                       # Request fanout histogram
system.membus.reqLayer0.occupancy              629500                       # Layer occupancy (ticks)
system.membus.reqLayer0.utilization               1.4                       # Layer utilization (%)
system.membus.respLayer1.occupancy            1558204                       # Layer occupancy (ticks)
system.membus.respLayer1.utilization              3.4                       # Layer utilization (%)
system.membus.respLayer2.occupancy             925208                       # Layer occupancy (ticks)
system.membus.respLayer2.utilization              2.0                       # Layer utilization (%)
system.voltage_domain.voltage                       1                       # Voltage in Volts
system.clk_domain.clock                          1000                       # Clock period in ticks
system.cpu_voltage_domain.voltage                   1                       # Voltage in Volts
system.mem_ctrls.pwrStateResidencyTicks::UNDEFINED     45396000                       # Cumulative time (in ticks) in various power states
system.mem_ctrls.bytes_read::.cpu.inst          18240                       # Number of bytes read from this memory
system.mem_ctrls.bytes_read::.cpu.data          10880                       # Number of bytes read from this memory
system.mem_ctrls.bytes_read::total              29120                       # Number of bytes read from this memory
system.mem_ctrls.bytes_inst_read::.cpu.inst        18240                       # Number of instructions bytes read from this memory
system.mem_ctrls.bytes_inst_read::total         18240                       # Number of instructions bytes read from this memory
system.mem_ctrls.num_reads::.cpu.inst             285                       # Number of read requests responded to by this memory
system.mem_ctrls.num_reads::.cpu.data             170                       # Number of read requests responded to by this memory
system.mem_ctrls.num_reads::total                 455                       # Number of read requests responded to by this memory
system.mem_ctrls.bw_read::.cpu.inst         401797515                       # Total read bandwidth from this memory (bytes/s)
system.mem_ctrls.bw_read::.cpu.data         239668693                       # Total read bandwidth from this memory (bytes/s)
system.mem_ctrls.bw_read::total             641466208                       # Total read bandwidth from this memory (bytes/s)
system.mem_ctrls.bw_inst_read::.cpu.inst    401797515                       # Instruction read bandwidth from this memory (bytes/s)
system.mem_ctrls.bw_inst_read::total        401797515                       # Instruction read bandwidth from this memory (bytes/s)
system.mem_ctrls.bw_total::.cpu.inst        401797515                       # Total bandwidth to/from this memory (bytes/s)
system.mem_ctrls.bw_total::.cpu.data        239668693                       # Total bandwidth to/from this memory (bytes/s)
system.mem_ctrls.bw_total::total            641466208                       # Total bandwidth to/from this memory (bytes/s)
system.mem_ctrls.avgPriority_.writebacks::samples        31.00                       # Average QoS priority value for accepted requests
system.mem_ctrls.avgPriority_.cpu.inst::samples       282.00                       # Average QoS priority value for accepted requests
system.mem_ctrls.avgPriority_.cpu.data::samples       168.00                       # Average QoS priority value for accepted requests
system.mem_ctrls.priorityMinLatency      0.000000017492                       # per QoS priority minimum request to response latency (s)
system.mem_ctrls.priorityMaxLatency      0.000000703652                       # per QoS priority maximum request to response latency (s)
system.mem_ctrls.numReadWriteTurnArounds            0                       # Number of turnarounds from READ to WRITE
system.mem_ctrls.numWriteReadTurnArounds            0                       # Number of turnarounds from WRITE to READ
system.mem_ctrls.numStayReadState                 941                       # Number of times bus staying in READ state
system.mem_ctrls.numStayWriteState                  0                       # Number of times bus staying in WRITE state
system.mem_ctrls.readReqs                         455                       # Number of read requests accepted
system.mem_ctrls.writeReqs                         31                       # Number of write requests accepted
system.mem_ctrls.readBursts                       455                       # Number of DRAM read bursts, including those serviced by the write queue
system.mem_ctrls.writeBursts                       31                       # Number of DRAM write bursts, including those merged in the write queue
system.mem_ctrls.servicedByWrQ                      5                       # Number of DRAM read bursts serviced by the write queue
system.mem_ctrls.mergedWrBursts                     0                       # Number of DRAM write bursts merged with an existing one
system.mem_ctrls.neitherReadNorWriteReqs            0                       # Number of requests that are neither read nor write
system.mem_ctrls.perBankRdBursts::0                35                       # Per bank write bursts
system.mem_ctrls.perBankRdBursts::1                 1                       # Per bank write bursts
system.mem_ctrls.perBankRdBursts::2                19                       # Per bank write bursts
system.mem_ctrls.perBankRdBursts::3                30                       # Per bank write bursts
system.mem_ctrls.perBankRdBursts::4                 0                       # Per bank write bursts
system.mem_ctrls.perBankRdBursts::5                22                       # Per bank write bursts
system.mem_ctrls.perBankRdBursts::6                31                       # Per bank write bursts
system.mem_ctrls.perBankRdBursts::7                36                       # Per bank write bursts
system.mem_ctrls.perBankRdBursts::8                76                       # Per bank write bursts
system.mem_ctrls.perBankRdBursts::9                57                       # Per bank write bursts
system.mem_ctrls.perBankRdBursts::10               22                       # Per bank write bursts
system.mem_ctrls.perBankRdBursts::11               48                       # Per bank write bursts
system.mem_ctrls.perBankRdBursts::12                1                       # Per bank write bursts
system.mem_ctrls.perBankRdBursts::13                0                       # Per bank write bursts
system.mem_ctrls.perBankRdBursts::14                0                       # Per bank write bursts
system.mem_ctrls.perBankRdBursts::15                0                       # Per bank write bursts
system.mem_ctrls.perBankRdBursts::16                9                       # Per bank write bursts
system.mem_ctrls.perBankRdBursts::17                0                       # Per bank write bursts
system.mem_ctrls.perBankRdBursts::18                0                       # Per bank write bursts
system.mem_ctrls.perBankRdBursts::19                0                       # Per bank write bursts
system.mem_ctrls.perBankRdBursts::20                8                       # Per bank write bursts
system.mem_ctrls.perBankRdBursts::21                2                       # Per bank write bursts
system.mem_ctrls.perBankRdBursts::22                5                       # Per bank write bursts
system.mem_ctrls.perBankRdBursts::23                1                       # Per bank write bursts
system.mem_ctrls.perBankRdBursts::24               21                       # Per bank write bursts
system.mem_ctrls.perBankRdBursts::25                3                       # Per bank write bursts
system.mem_ctrls.perBankRdBursts::26                0                       # Per bank write bursts
system.mem_ctrls.perBankRdBursts::27                3                       # Per bank write bursts
system.mem_ctrls.perBankRdBursts::28                7                       # Per bank write bursts
system.mem_ctrls.perBankRdBursts::29                8                       # Per bank write bursts
system.mem_ctrls.perBankRdBursts::30                5                       # Per bank write bursts
system.mem_ctrls.perBankRdBursts::31                0                       # Per bank write bursts
system.mem_ctrls.perBankWrBursts::0                 0                       # Per bank write bursts
system.mem_ctrls.perBankWrBursts::1                 0                       # Per bank write bursts
system.mem_ctrls.perBankWrBursts::2                 0                       # Per bank write bursts
system.mem_ctrls.perBankWrBursts::3                 0                       # Per bank write bursts
system.mem_ctrls.perBankWrBursts::4                 0                       # Per bank write bursts
system.mem_ctrls.perBankWrBursts::5                 0                       # Per bank write bursts
system.mem_ctrls.perBankWrBursts::6                 0                       # Per bank write bursts
system.mem_ctrls.perBankWrBursts::7                 0                       # Per bank write bursts
system.mem_ctrls.perBankWrBursts::8                 0                       # Per bank write bursts
system.mem_ctrls.perBankWrBursts::9                 0                       # Per bank write bursts
system.mem_ctrls.perBankWrBursts::10                0                       # Per bank write bursts
system.mem_ctrls.perBankWrBursts::11                0                       # Per bank write bursts
system.mem_ctrls.perBankWrBursts::12                0                       # Per bank write bursts
system.mem_ctrls.perBankWrBursts::13                0                       # Per bank write bursts
system.mem_ctrls.perBankWrBursts::14                0                       # Per bank write bursts
system.mem_ctrls.perBankWrBursts::15                0                       # Per bank write bursts
system.mem_ctrls.perBankWrBursts::16                0                       # Per bank write bursts
system.mem_ctrls.perBankWrBursts::17                0                       # Per bank write bursts
system.mem_ctrls.perBankWrBursts::18                0                       # Per bank write bursts
system.mem_ctrls.perBankWrBursts::19                0                       # Per bank write bursts
system.mem_ctrls.perBankWrBursts::20                0                       # Per bank write bursts
system.mem_ctrls.perBankWrBursts::21                0                       # Per bank write bursts
system.mem_ctrls.perBankWrBursts::22                0                       # Per bank write bursts
system.mem_ctrls.perBankWrBursts::23                0                       # Per bank write bursts
system.mem_ctrls.perBankWrBursts::24                0                       # Per bank write bursts
system.mem_ctrls.perBankWrBursts::25                0                       # Per bank write bursts
system.mem_ctrls.perBankWrBursts::26                0                       # Per bank write bursts
system.mem_ctrls.perBankWrBursts::27                0                       # Per bank write bursts
system.mem_ctrls.perBankWrBursts::28                0                       # Per bank write bursts
system.mem_ctrls.perBankWrBursts::29                0                       # Per bank write bursts
system.mem_ctrls.perBankWrBursts::30                0                       # Per bank write bursts
system.mem_ctrls.perBankWrBursts::31                0                       # Per bank write bursts
system.mem_ctrls.avgRdQLen                       1.01                       # Average read queue length when enqueuing
system.mem_ctrls.avgWrQLen                       7.36                       # Average write queue length when enqueuing
system.mem_ctrls.totQLat                      3111492                       # Total ticks spent queuing
system.mem_ctrls.totBusLat                    1499400                       # Total ticks spent in databus transfers
system.mem_ctrls.totMemAccLat                10982892                       # Total ticks spent from burst creation until serviced by the DRAM
system.mem_ctrls.avgQLat                      6914.43                       # Average queueing delay per DRAM burst
system.mem_ctrls.avgBusLat                    3332.00                       # Average bus latency per DRAM burst
system.mem_ctrls.avgMemAccLat                24406.43                       # Average memory access latency per DRAM burst
system.mem_ctrls.numRdRetry                         0                       # Number of times read queue was full causing retry
system.mem_ctrls.numWrRetry                         0                       # Number of times write queue was full causing retry
system.mem_ctrls.readRowHits                      351                       # Number of row buffer hits during reads
system.mem_ctrls.writeRowHits                       0                       # Number of row buffer hits during writes
system.mem_ctrls.readRowHitRate                 78.00                       # Row buffer hit rate for reads
system.mem_ctrls.writeRowHitRate                 0.00                       # Row buffer hit rate for writes
system.mem_ctrls.readPktSize::0                     0                       # Read request sizes (log2)
system.mem_ctrls.readPktSize::1                     0                       # Read request sizes (log2)
system.mem_ctrls.readPktSize::2                     0                       # Read request sizes (log2)
system.mem_ctrls.readPktSize::3                     0                       # Read request sizes (log2)
system.mem_ctrls.readPktSize::4                     0                       # Read request sizes (log2)
system.mem_ctrls.readPktSize::5                     0                       # Read request sizes (log2)
system.mem_ctrls.readPktSize::6                   455                       # Read request sizes (log2)
system.mem_ctrls.writePktSize::0                    0                       # Write request sizes (log2)
system.mem_ctrls.writePktSize::1                    0                       # Write request sizes (log2)
system.mem_ctrls.writePktSize::2                    0                       # Write request sizes (log2)
system.mem_ctrls.writePktSize::3                    0                       # Write request sizes (log2)
system.mem_ctrls.writePktSize::4                    0                       # Write request sizes (log2)
system.mem_ctrls.writePktSize::5                    0                       # Write request sizes (log2)
system.mem_ctrls.writePktSize::6                   31                       # Write request sizes (log2)
system.mem_ctrls.rdQLenPdf::0                     446                       # What read queue length does an incoming req see
system.mem_ctrls.rdQLenPdf::1                       4                       # What read queue length does an incoming req see
system.mem_ctrls.rdQLenPdf::2                       0                       # What read queue length does an incoming req see
system.mem_ctrls.rdQLenPdf::3                       0                       # What read queue length does an incoming req see
system.mem_ctrls.rdQLenPdf::4                       0                       # What read queue length does an incoming req see
system.mem_ctrls.rdQLenPdf::5                       0                       # What read queue length does an incoming req see
system.mem_ctrls.rdQLenPdf::6                       0                       # What read queue length does an incoming req see
system.mem_ctrls.rdQLenPdf::7                       0                       # What read queue length does an incoming req see
system.mem_ctrls.rdQLenPdf::8                       0                       # What read queue length does an incoming req see
system.mem_ctrls.rdQLenPdf::9                       0                       # What read queue length does an incoming req see
system.mem_ctrls.rdQLenPdf::10                      0                       # What read queue length does an incoming req see
system.mem_ctrls.rdQLenPdf::11                      0                       # What read queue length does an incoming req see
system.mem_ctrls.rdQLenPdf::12                      0                       # What read queue length does an incoming req see
system.mem_ctrls.rdQLenPdf::13                      0                       # What read queue length does an incoming req see
system.mem_ctrls.rdQLenPdf::14                      0                       # What read queue length does an incoming req see
system.mem_ctrls.rdQLenPdf::15                      0                       # What read queue length does an incoming req see
system.mem_ctrls.rdQLenPdf::16                      0                       # What read queue length does an incoming req see
system.mem_ctrls.rdQLenPdf::17                      0                       # What read queue length does an incoming req see
system.mem_ctrls.rdQLenPdf::18                      0                       # What read queue length does an incoming req see
system.mem_ctrls.rdQLenPdf::19                      0                       # What read queue length does an incoming req see
system.mem_ctrls.rdQLenPdf::20                      0                       # What read queue length does an incoming req see
system.mem_ctrls.rdQLenPdf::21                      0                       # What read queue length does an incoming req see
system.mem_ctrls.rdQLenPdf::22                      0                       # What read queue length does an incoming req see
system.mem_ctrls.rdQLenPdf::23                      0                       # What read queue length does an incoming req see
system.mem_ctrls.rdQLenPdf::24                      0                       # What read queue length does an incoming req see
system.mem_ctrls.rdQLenPdf::25                      0                       # What read queue length does an incoming req see
system.mem_ctrls.rdQLenPdf::26                      0                       # What read queue length does an incoming req see
system.mem_ctrls.rdQLenPdf::27                      0                       # What read queue length does an incoming req see
system.mem_ctrls.rdQLenPdf::28                      0                       # What read queue length does an incoming req see
system.mem_ctrls.rdQLenPdf::29                      0                       # What read queue length does an incoming req see
system.mem_ctrls.rdQLenPdf::30                      0                       # What read queue length does an incoming req see
system.mem_ctrls.rdQLenPdf::31                      0                       # What read queue length does an incoming req see
system.mem_ctrls.rdQLenPdf::32                      0                       # What read queue length does an incoming req see
system.mem_ctrls.rdQLenPdf::33                      0                       # What read queue length does an incoming req see
system.mem_ctrls.rdQLenPdf::34                      0                       # What read queue length does an incoming req see
system.mem_ctrls.rdQLenPdf::35                      0                       # What read queue length does an incoming req see
system.mem_ctrls.rdQLenPdf::36                      0                       # What read queue length does an incoming req see
system.mem_ctrls.rdQLenPdf::37                      0                       # What read queue length does an incoming req see
system.mem_ctrls.rdQLenPdf::38                      0                       # What read queue length does an incoming req see
system.mem_ctrls.rdQLenPdf::39                      0                       # What read queue length does an incoming req see
system.mem_ctrls.rdQLenPdf::40                      0                       # What read queue length does an incoming req see
system.mem_ctrls.rdQLenPdf::41                      0                       # What read queue length does an incoming req see
system.mem_ctrls.rdQLenPdf::42                      0                       # What read queue length does an incoming req see
system.mem_ctrls.rdQLenPdf::43                      0                       # What read queue length does an incoming req see
system.mem_ctrls.rdQLenPdf::44                      0                       # What read queue length does an incoming req see
system.mem_ctrls.rdQLenPdf::45                      0                       # What read queue length does an incoming req see
system.mem_ctrls.rdQLenPdf::46                      0                       # What read queue length does an incoming req see
system.mem_ctrls.rdQLenPdf::47                      0                       # What read queue length does an incoming req see
system.mem_ctrls.rdQLenPdf::48                      0                       # What read queue length does an incoming req see
system.mem_ctrls.rdQLenPdf::49                      0                       # What read queue length does an incoming req see
system.mem_ctrls.rdQLenPdf::50                      0                       # What read queue length does an incoming req see
system.mem_ctrls.rdQLenPdf::51                      0                       # What read queue length does an incoming req see
system.mem_ctrls.rdQLenPdf::52                      0                       # What read queue length does an incoming req see
system.mem_ctrls.rdQLenPdf::53                      0                       # What read queue length does an incoming req see
system.mem_ctrls.rdQLenPdf::54                      0                       # What read queue length does an incoming req see
system.mem_ctrls.rdQLenPdf::55                      0                       # What read queue length does an incoming req see
system.mem_ctrls.rdQLenPdf::56                      0                       # What read queue length does an incoming req see
system.mem_ctrls.rdQLenPdf::57                      0                       # What read queue length does an incoming req see
system.mem_ctrls.rdQLenPdf::58                      0                       # What read queue length does an incoming req see
system.mem_ctrls.rdQLenPdf::59                      0                       # What read queue length does an incoming req see
system.mem_ctrls.rdQLenPdf::60                      0                       # What read queue length does an incoming req see
system.mem_ctrls.rdQLenPdf::61                      0                       # What read queue length does an incoming req see
system.mem_ctrls.rdQLenPdf::62                      0                       # What read queue length does an incoming req see
system.mem_ctrls.rdQLenPdf::63                      0                       # What read queue length does an incoming req see
system.mem_ctrls.wrQLenPdf::0                       1                       # What write queue length does an incoming req see
system.mem_ctrls.wrQLenPdf::1                       1                       # What write queue length does an incoming req see
system.mem_ctrls.wrQLenPdf::2                       1                       # What write queue length does an incoming req see
system.mem_ctrls.wrQLenPdf::3                       1                       # What write queue length does an incoming req see
system.mem_ctrls.wrQLenPdf::4                       1                       # What write queue length does an incoming req see
system.mem_ctrls.wrQLenPdf::5                       1                       # What write queue length does an incoming req see
system.mem_ctrls.wrQLenPdf::6                       1                       # What write queue length does an incoming req see
system.mem_ctrls.wrQLenPdf::7                       1                       # What write queue length does an incoming req see
system.mem_ctrls.wrQLenPdf::8                       1                       # What write queue length does an incoming req see
system.mem_ctrls.wrQLenPdf::9                       1                       # What write queue length does an incoming req see
system.mem_ctrls.wrQLenPdf::10                      1                       # What write queue length does an incoming req see
system.mem_ctrls.wrQLenPdf::11                      1                       # What write queue length does an incoming req see
system.mem_ctrls.wrQLenPdf::12                      1                       # What write queue length does an incoming req see
system.mem_ctrls.wrQLenPdf::13                      1                       # What write queue length does an incoming req see
system.mem_ctrls.wrQLenPdf::14                      1                       # What write queue length does an incoming req see
system.mem_ctrls.wrQLenPdf::15                      1                       # What write queue length does an incoming req see
system.mem_ctrls.wrQLenPdf::16                      1                       # What write queue length does an incoming req see
system.mem_ctrls.wrQLenPdf::17                      1                       # What write queue length does an incoming req see
system.mem_ctrls.wrQLenPdf::18                      1                       # What write queue length does an incoming req see
system.mem_ctrls.wrQLenPdf::19                      1                       # What write queue length does an incoming req see
system.mem_ctrls.wrQLenPdf::20                      1                       # What write queue length does an incoming req see
system.mem_ctrls.wrQLenPdf::21                      1                       # What write queue length does an incoming req see
system.mem_ctrls.wrQLenPdf::22                      1                       # What write queue length does an incoming req see
system.mem_ctrls.wrQLenPdf::23                      1                       # What write queue length does an incoming req see
system.mem_ctrls.wrQLenPdf::24                      1                       # What write queue length does an incoming req see
system.mem_ctrls.wrQLenPdf::25                      1                       # What write queue length does an incoming req see
system.mem_ctrls.wrQLenPdf::26                      1                       # What write queue length does an incoming req see
system.mem_ctrls.wrQLenPdf::27                      1                       # What write queue length does an incoming req see
system.mem_ctrls.wrQLenPdf::28                      1                       # What write queue length does an incoming req see
system.mem_ctrls.wrQLenPdf::29                      1                       # What write queue length does an incoming req see
system.mem_ctrls.wrQLenPdf::30                      1                       # What write queue length does an incoming req see
system.mem_ctrls.wrQLenPdf::31                      0                       # What write queue length does an incoming req see
system.mem_ctrls.wrQLenPdf::32                      0                       # What write queue length does an incoming req see
system.mem_ctrls.wrQLenPdf::33                      0                       # What write queue length does an incoming req see
system.mem_ctrls.wrQLenPdf::34                      0                       # What write queue length does an incoming req see
system.mem_ctrls.wrQLenPdf::35                      0                       # What write queue length does an incoming req see
system.mem_ctrls.wrQLenPdf::36                      0                       # What write queue length does an incoming req see
system.mem_ctrls.wrQLenPdf::37                      0                       # What write queue length does an incoming req see
system.mem_ctrls.wrQLenPdf::38                      0                       # What write queue length does an incoming req see
system.mem_ctrls.wrQLenPdf::39                      0                       # What write queue length does an incoming req see
system.mem_ctrls.wrQLenPdf::40                      0                       # What write queue length does an incoming req see
system.mem_ctrls.wrQLenPdf::41                      0                       # What write queue length does an incoming req see
system.mem_ctrls.wrQLenPdf::42                      0                       # What write queue length does an incoming req see
system.mem_ctrls.wrQLenPdf::43                      0                       # What write queue length does an incoming req see
system.mem_ctrls.wrQLenPdf::44                      0                       # What write queue length does an incoming req see
system.mem_ctrls.wrQLenPdf::45                      0                       # What write queue length does an incoming req see
system.mem_ctrls.wrQLenPdf::46                      0                       # What write queue length does an incoming req see
system.mem_ctrls.wrQLenPdf::47                      0                       # What write queue length does an incoming req see
system.mem_ctrls.wrQLenPdf::48                      0                       # What write queue length does an incoming req see
system.mem_ctrls.wrQLenPdf::49                      0                       # What write queue length does an incoming req see
system.mem_ctrls.wrQLenPdf::50                      0                       # What write queue length does an incoming req see
system.mem_ctrls.wrQLenPdf::51                      0                       # What write queue length does an incoming req see
system.mem_ctrls.wrQLenPdf::52                      0                       # What write queue length does an incoming req see
system.mem_ctrls.wrQLenPdf::53                      0                       # What write queue length does an incoming req see
system.mem_ctrls.wrQLenPdf::54                      0                       # What write queue length does an incoming req see
system.mem_ctrls.wrQLenPdf::55                      0                       # What write queue length does an incoming req see
system.mem_ctrls.wrQLenPdf::56                      0                       # What write queue length does an incoming req see
system.mem_ctrls.wrQLenPdf::57                      0                       # What write queue length does an incoming req see
system.mem_ctrls.wrQLenPdf::58                      0                       # What write queue length does an incoming req see
system.mem_ctrls.wrQLenPdf::59                      0                       # What write queue length does an incoming req see
system.mem_ctrls.wrQLenPdf::60                      0                       # What write queue length does an incoming req see
system.mem_ctrls.wrQLenPdf::61                      0                       # What write queue length does an incoming req see
system.mem_ctrls.wrQLenPdf::62                      0                       # What write queue length does an incoming req see
system.mem_ctrls.wrQLenPdf::63                      0                       # What write queue length does an incoming req see
system.mem_ctrls.wrQLenPdf::64                      0                       # What write queue length does an incoming req see
system.mem_ctrls.wrQLenPdf::65                      0                       # What write queue length does an incoming req see
system.mem_ctrls.wrQLenPdf::66                      0                       # What write queue length does an incoming req see
system.mem_ctrls.wrQLenPdf::67                      0                       # What write queue length does an incoming req see
system.mem_ctrls.wrQLenPdf::68                      0                       # What write queue length does an incoming req see
system.mem_ctrls.wrQLenPdf::69                      0                       # What write queue length does an incoming req see
system.mem_ctrls.wrQLenPdf::70                      0                       # What write queue length does an incoming req see
system.mem_ctrls.wrQLenPdf::71                      0                       # What write queue length does an incoming req see
system.mem_ctrls.wrQLenPdf::72                      0                       # What write queue length does an incoming req see
system.mem_ctrls.wrQLenPdf::73                      0                       # What write queue length does an incoming req see
system.mem_ctrls.wrQLenPdf::74                      0                       # What write queue length does an incoming req see
system.mem_ctrls.wrQLenPdf::75                      0                       # What write queue length does an incoming req see
system.mem_ctrls.wrQLenPdf::76                      0                       # What write queue length does an incoming req see
system.mem_ctrls.wrQLenPdf::77                      0                       # What write queue length does an incoming req see
system.mem_ctrls.wrQLenPdf::78                      0                       # What write queue length does an incoming req see
system.mem_ctrls.wrQLenPdf::79                      0                       # What write queue length does an incoming req see
system.mem_ctrls.wrQLenPdf::80                      0                       # What write queue length does an incoming req see
system.mem_ctrls.wrQLenPdf::81                      0                       # What write queue length does an incoming req see
system.mem_ctrls.wrQLenPdf::82                      0                       # What write queue length does an incoming req see
system.mem_ctrls.wrQLenPdf::83                      0                       # What write queue length does an incoming req see
system.mem_ctrls.wrQLenPdf::84                      0                       # What write queue length does an incoming req see
system.mem_ctrls.wrQLenPdf::85                      0                       # What write queue length does an incoming req see
system.mem_ctrls.wrQLenPdf::86                      0                       # What write queue length does an incoming req see
system.mem_ctrls.wrQLenPdf::87                      0                       # What write queue length does an incoming req see
system.mem_ctrls.wrQLenPdf::88                      0                       # What write queue length does an incoming req see
system.mem_ctrls.wrQLenPdf::89                      0                       # What write queue length does an incoming req see
system.mem_ctrls.wrQLenPdf::90                      0                       # What write queue length does an incoming req see
system.mem_ctrls.wrQLenPdf::91                      0                       # What write queue length does an incoming req see
system.mem_ctrls.wrQLenPdf::92                      0                       # What write queue length does an incoming req see
system.mem_ctrls.wrQLenPdf::93                      0                       # What write queue length does an incoming req see
system.mem_ctrls.wrQLenPdf::94                      0                       # What write queue length does an incoming req see
system.mem_ctrls.wrQLenPdf::95                      0                       # What write queue length does an incoming req see
system.mem_ctrls.wrQLenPdf::96                      0                       # What write queue length does an incoming req see
system.mem_ctrls.wrQLenPdf::97                      0                       # What write queue length does an incoming req see
system.mem_ctrls.wrQLenPdf::98                      0                       # What write queue length does an incoming req see
system.mem_ctrls.wrQLenPdf::99                      0                       # What write queue length does an incoming req see
system.mem_ctrls.wrQLenPdf::100                     0                       # What write queue length does an incoming req see
system.mem_ctrls.wrQLenPdf::101                     0                       # What write queue length does an incoming req see
system.mem_ctrls.wrQLenPdf::102                     0                       # What write queue length does an incoming req see
system.mem_ctrls.wrQLenPdf::103                     0                       # What write queue length does an incoming req see
system.mem_ctrls.wrQLenPdf::104                     0                       # What write queue length does an incoming req see
system.mem_ctrls.wrQLenPdf::105                     0                       # What write queue length does an incoming req see
system.mem_ctrls.wrQLenPdf::106                     0                       # What write queue length does an incoming req see
system.mem_ctrls.wrQLenPdf::107                     0                       # What write queue length does an incoming req see
system.mem_ctrls.wrQLenPdf::108                     0                       # What write queue length does an incoming req see
system.mem_ctrls.wrQLenPdf::109                     0                       # What write queue length does an incoming req see
system.mem_ctrls.wrQLenPdf::110                     0                       # What write queue length does an incoming req see
system.mem_ctrls.wrQLenPdf::111                     0                       # What write queue length does an incoming req see
system.mem_ctrls.wrQLenPdf::112                     0                       # What write queue length does an incoming req see
system.mem_ctrls.wrQLenPdf::113                     0                       # What write queue length does an incoming req see
system.mem_ctrls.wrQLenPdf::114                     0                       # What write queue length does an incoming req see
system.mem_ctrls.wrQLenPdf::115                     0                       # What write queue length does an incoming req see
system.mem_ctrls.wrQLenPdf::116                     0                       # What write queue length does an incoming req see
system.mem_ctrls.wrQLenPdf::117                     0                       # What write queue length does an incoming req see
system.mem_ctrls.wrQLenPdf::118                     0                       # What write queue length does an incoming req see
system.mem_ctrls.wrQLenPdf::119                     0                       # What write queue length does an incoming req see
system.mem_ctrls.wrQLenPdf::120                     0                       # What write queue length does an incoming req see
system.mem_ctrls.wrQLenPdf::121                     0                       # What write queue length does an incoming req see
system.mem_ctrls.wrQLenPdf::122                     0                       # What write queue length does an incoming req see
system.mem_ctrls.wrQLenPdf::123                     0                       # What write queue length does an incoming req see
system.mem_ctrls.wrQLenPdf::124                     0                       # What write queue length does an incoming req see
system.mem_ctrls.wrQLenPdf::125                     0                       # What write queue length does an incoming req see
system.mem_ctrls.wrQLenPdf::126                     0                       # What write queue length does an incoming req see
system.mem_ctrls.wrQLenPdf::127                     0                       # What write queue length does an incoming req see
system.mem_ctrls.bytesPerActivate::samples           86                       # Bytes accessed per row activation
system.mem_ctrls.bytesPerActivate::mean    299.162791                       # Bytes accessed per row activation
system.mem_ctrls.bytesPerActivate::gmean   199.349839                       # Bytes accessed per row activation
system.mem_ctrls.bytesPerActivate::stdev   285.448249                       # Bytes accessed per row activation
system.mem_ctrls.bytesPerActivate::0-127           21     24.42%     24.42% # Bytes accessed per row activation
system.mem_ctrls.bytesPerActivate::128-255           28     32.56%     56.98% # Bytes accessed per row activation
system.mem_ctrls.bytesPerActivate::256-383           13     15.12%     72.09% # Bytes accessed per row activation
system.mem_ctrls.bytesPerActivate::384-511            7      8.14%     80.23% # Bytes accessed per row activation
system.mem_ctrls.bytesPerActivate::512-639            4      4.65%     84.88% # Bytes accessed per row activation
system.mem_ctrls.bytesPerActivate::640-767            2      2.33%     87.21% # Bytes accessed per row activation
system.mem_ctrls.bytesPerActivate::768-895            4      4.65%     91.86% # Bytes accessed per row activation
system.mem_ctrls.bytesPerActivate::896-1023            1      1.16%     93.02% # Bytes accessed per row activation
system.mem_ctrls.bytesPerActivate::1024-1151            6      6.98%    100.00% # Bytes accessed per row activation
system.mem_ctrls.bytesPerActivate::total           86                       # Bytes accessed per row activation
system.mem_ctrls.bytesReadDRAM                  28800                       # Total number of bytes read from DRAM
system.mem_ctrls.bytesReadWrQ                     320                       # Total number of bytes read from write queue
system.mem_ctrls.bytesWritten                       0                       # Total number of bytes written to DRAM
system.mem_ctrls.bytesReadSys                   29120                       # Total read bytes from the system interface side
system.mem_ctrls.bytesWrittenSys                 1984                       # Total written bytes from the system interface side
system.mem_ctrls.avgRdBW                       634.42                       # Average DRAM read bandwidth in MiByte/s
system.mem_ctrls.avgWrBW                         0.00                       # Average achieved write bandwidth in MiByte/s
system.mem_ctrls.avgRdBWSys                    641.47                       # Average system read bandwidth in MiByte/s
system.mem_ctrls.avgWrBWSys                     43.70                       # Average system write bandwidth in MiByte/s
system.mem_ctrls.peakBW                      19207.00                       # Theoretical peak bandwidth in MiByte/s
system.mem_ctrls.busUtil                         3.30                       # Data bus utilization in percentage
system.mem_ctrls.busUtilRead                     3.30                       # Data bus utilization in percentage for reads
system.mem_ctrls.busUtilWrite                    0.00                       # Data bus utilization in percentage for writes
system.mem_ctrls.totGap                      45332500                       # Total gap between requests
system.mem_ctrls.avgGap                      93276.75                       # Average gap between requests
system.mem_ctrls.masterReadBytes::.cpu.inst        18048                       # Per-master bytes read from memory
system.mem_ctrls.masterReadBytes::.cpu.data        10752                       # Per-master bytes read from memory
system.mem_ctrls.masterReadRate::.cpu.inst 397568067.671160459518                       # Per-master bytes read from memory rate (Bytes/sec)
system.mem_ctrls.masterReadRate::.cpu.data 236849061.591329634190                       # Per-master bytes read from memory rate (Bytes/sec)
system.mem_ctrls.masterReadAccesses::.cpu.inst          285                       # Per-master read serviced memory accesses
system.mem_ctrls.masterReadAccesses::.cpu.data          170                       # Per-master read serviced memory accesses
system.mem_ctrls.masterWriteAccesses::.writebacks           31                       # Per-master write serviced memory accesses
system.mem_ctrls.masterReadTotalLat::.cpu.inst      6911796                       # Per-master read total memory access latency
system.mem_ctrls.masterReadTotalLat::.cpu.data      4071096                       # Per-master read total memory access latency
system.mem_ctrls.masterReadAvgLat::.cpu.inst     24251.92                       # Per-master read average memory access latency
system.mem_ctrls.masterReadAvgLat::.cpu.data     23947.62                       # Per-master read average memory access latency
system.mem_ctrls.masterWriteAvgLat::.writebacks         0.00                       # Per-master write average memory access latency
system.mem_ctrls.pageHitRate                    72.97                       # Row buffer hit rate, read and write combined
system.mem_ctrls.rank1.actEnergy         38984.400000                       # Energy for activate commands per rank (pJ)
system.mem_ctrls.rank1.preEnergy         57810.866400                       # Energy for precharge commands per rank (pJ)
system.mem_ctrls.rank1.readEnergy        197488.972800                       # Energy for read commands per rank (pJ)
system.mem_ctrls.rank1.writeEnergy                  0                       # Energy for write commands per rank (pJ)
system.mem_ctrls.rank1.refreshEnergy     3379277.748000                       # Energy for refresh commands per rank (pJ)
system.mem_ctrls.rank1.actBackEnergy     18669311.287200                       # Energy for active background per rank (pJ)
system.mem_ctrls.rank1.preBackEnergy     1928796.172800                       # Energy for precharge background per rank (pJ)
system.mem_ctrls.rank1.actPowerDownEnergy            0                       # Energy for active power-down per rank (pJ)
system.mem_ctrls.rank1.prePowerDownEnergy            0                       # Energy for precharge power-down per rank (pJ)
system.mem_ctrls.rank1.selfRefreshEnergy            0                       # Energy for self refresh per rank (pJ)
system.mem_ctrls.rank1.totalEnergy       24271669.447200                       # Total energy per rank (pJ)
system.mem_ctrls.rank1.averagePower        534.665377                       # Core power per rank (mW)
system.mem_ctrls.rank1.totalIdleTime                0                       # Total Idle time Per DRAM Rank
system.mem_ctrls.rank1.memoryStateTime::IDLE      5770100                       # Time in different power states
system.mem_ctrls.rank1.memoryStateTime::REF      1750000                       # Time in different power states
system.mem_ctrls.rank1.memoryStateTime::SREF            0                       # Time in different power states
system.mem_ctrls.rank1.memoryStateTime::PRE_PDN            0                       # Time in different power states
system.mem_ctrls.rank1.memoryStateTime::ACT     37875900                       # Time in different power states
system.mem_ctrls.rank1.memoryStateTime::ACT_PDN            0                       # Time in different power states
system.mem_ctrls.rank0.actEnergy         115393.824000                       # Energy for activate commands per rank (pJ)
system.mem_ctrls.rank0.preEnergy         178938.396000                       # Energy for precharge commands per rank (pJ)
system.mem_ctrls.rank0.readEnergy        1036817.107200                       # Energy for read commands per rank (pJ)
system.mem_ctrls.rank0.writeEnergy                  0                       # Energy for write commands per rank (pJ)
system.mem_ctrls.rank0.refreshEnergy     3379277.748000                       # Energy for refresh commands per rank (pJ)
system.mem_ctrls.rank0.actBackEnergy     20998101.398400                       # Energy for active background per rank (pJ)
system.mem_ctrls.rank0.preBackEnergy     321103.507200                       # Energy for precharge background per rank (pJ)
system.mem_ctrls.rank0.actPowerDownEnergy            0                       # Energy for active power-down per rank (pJ)
system.mem_ctrls.rank0.prePowerDownEnergy            0                       # Energy for precharge power-down per rank (pJ)
system.mem_ctrls.rank0.selfRefreshEnergy            0                       # Energy for self refresh per rank (pJ)
system.mem_ctrls.rank0.totalEnergy       26029631.980800                       # Total energy per rank (pJ)
system.mem_ctrls.rank0.averagePower        573.390430                       # Core power per rank (mW)
system.mem_ctrls.rank0.totalIdleTime                0                       # Total Idle time Per DRAM Rank
system.mem_ctrls.rank0.memoryStateTime::IDLE       845480                       # Time in different power states
system.mem_ctrls.rank0.memoryStateTime::REF      1750000                       # Time in different power states
system.mem_ctrls.rank0.memoryStateTime::SREF            0                       # Time in different power states
system.mem_ctrls.rank0.memoryStateTime::PRE_PDN            0                       # Time in different power states
system.mem_ctrls.rank0.memoryStateTime::ACT     42800520                       # Time in different power states
system.mem_ctrls.rank0.memoryStateTime::ACT_PDN            0                       # Time in different power states
system.cpu_clk_domain.clock                       500                       # Clock period in ticks
system.cpu.numPwrStateTransitions                   1                       # Number of power state transitions
system.cpu.pwrStateResidencyTicks::ON        45396000                       # Cumulative time (in ticks) in various power states
system.cpu.icache.pwrStateResidencyTicks::UNDEFINED     45396000                       # Cumulative time (in ticks) in various power states
system.cpu.icache.demand_hits::.cpu.inst        14647                       # number of demand (read+write) hits
system.cpu.icache.demand_hits::total            14647                       # number of demand (read+write) hits
system.cpu.icache.overall_hits::.cpu.inst        14647                       # number of overall hits
system.cpu.icache.overall_hits::total           14647                       # number of overall hits
system.cpu.icache.demand_misses::.cpu.inst          285                       # number of demand (read+write) misses
system.cpu.icache.demand_misses::total            285                       # number of demand (read+write) misses
system.cpu.icache.overall_misses::.cpu.inst          285                       # number of overall misses
system.cpu.icache.overall_misses::total           285                       # number of overall misses
system.cpu.icache.demand_miss_latency::.cpu.inst     16148000                       # number of demand (read+write) miss cycles
system.cpu.icache.demand_miss_latency::total     16148000                       # number of demand (read+write) miss cycles
system.cpu.icache.overall_miss_latency::.cpu.inst     16148000                       # number of overall miss cycles
system.cpu.icache.overall_miss_latency::total     16148000                       # number of overall miss cycles
system.cpu.icache.demand_accesses::.cpu.inst        14932                       # number of demand (read+write) accesses
system.cpu.icache.demand_accesses::total        14932                       # number of demand (read+write) accesses
system.cpu.icache.overall_accesses::.cpu.inst        14932                       # number of overall (read+write) accesses
system.cpu.icache.overall_accesses::total        14932                       # number of overall (read+write) accesses
system.cpu.icache.demand_miss_rate::.cpu.inst     0.019087                       # miss rate for demand accesses
system.cpu.icache.demand_miss_rate::total     0.019087                       # miss rate for demand accesses
system.cpu.icache.overall_miss_rate::.cpu.inst     0.019087                       # miss rate for overall accesses
system.cpu.icache.overall_miss_rate::total     0.019087                       # miss rate for overall accesses
[...]
system.cpu.icache.ReadReq_miss_latency::total     16148000                       # number of ReadReq miss cycles
system.cpu.icache.ReadReq_accesses::.cpu.inst        14932                       # number of ReadReq accesses(hits+misses)
system.cpu.icache.ReadReq_accesses::total        14932                       # number of ReadReq accesses(hits+misses)
system.cpu.icache.ReadReq_miss_rate::.cpu.inst     0.019087                       # miss rate for ReadReq accesses
system.cpu.icache.ReadReq_miss_rate::total     0.019087                       # miss rate for ReadReq accesses
system.cpu.icache.ReadReq_avg_miss_latency::.cpu.inst 56659.649123                       # average ReadReq miss latency
system.cpu.icache.ReadReq_avg_miss_latency::total 56659.649123                       # average ReadReq miss latency
system.cpu.icache.ReadReq_mshr_misses::.cpu.inst          285                       # number of ReadReq MSHR misses
system.cpu.icache.ReadReq_mshr_misses::total          285                       # number of ReadReq MSHR misses
system.cpu.icache.ReadReq_mshr_miss_latency::.cpu.inst     15863000                       # number of ReadReq MSHR miss cycles
system.cpu.icache.ReadReq_mshr_miss_latency::total     15863000                       # number of ReadReq MSHR miss cycles
system.cpu.icache.ReadReq_mshr_miss_rate::.cpu.inst     0.019087                       # mshr miss rate for ReadReq accesses
system.cpu.icache.ReadReq_mshr_miss_rate::total     0.019087                       # mshr miss rate for ReadReq accesses
system.cpu.icache.ReadReq_avg_mshr_miss_latency::.cpu.inst 55659.649123                       # average ReadReq mshr miss latency
system.cpu.icache.ReadReq_avg_mshr_miss_latency::total 55659.649123                       # average ReadReq mshr miss latency
system.cpu.icache.tags.pwrStateResidencyTicks::UNDEFINED     45396000                       # Cumulative time (in ticks) in various power states
system.cpu.icache.tags.tagsinuse           133.724890                       # Cycle average of tags in use
system.cpu.icache.tags.total_refs               14932                       # Total number of references to valid blocks.
system.cpu.icache.tags.sampled_refs               285                       # Sample count of references to valid blocks.
system.cpu.icache.tags.avg_refs             52.392982                       # Average number of references to valid blocks.
system.cpu.icache.tags.warmup_cycle             76000                       # Cycle when the warmup percentage was hit.
system.cpu.icache.tags.occ_blocks::.cpu.inst   133.724890                       # Average occupied blocks per requestor
system.cpu.icache.tags.occ_percent::.cpu.inst     0.261181                       # Average percentage of cache occupancy
system.cpu.icache.tags.occ_percent::total     0.261181                       # Average percentage of cache occupancy
system.cpu.icache.tags.occ_task_id_blocks::1024          251                       # Occupied blocks per task id
system.cpu.icache.tags.age_task_id_blocks_1024::0           82                       # Occupied blocks per task id
system.cpu.icache.tags.age_task_id_blocks_1024::1          169                       # Occupied blocks per task id
system.cpu.icache.tags.occ_task_id_percent::1024     0.490234                       # Percentage of cache occupancy per task id
system.cpu.icache.tags.tag_accesses             30149                       # Number of tag accesses
system.cpu.icache.tags.data_accesses            30149                       # Number of data accesses
system.cpu.dtb.walker.pwrStateResidencyTicks::UNDEFINED     45396000                       # Cumulative time (in ticks) in various power states
system.cpu.dtb.stage2_mmu.stage2_tlb.walker.pwrStateResidencyTicks::UNDEFINED     45396000                       # Cumulative time (in ticks) in various power states
system.cpu.itb.walker.pwrStateResidencyTicks::UNDEFINED     45396000                       # Cumulative time (in ticks) in various power states
system.cpu.itb.stage2_mmu.stage2_tlb.walker.pwrStateResidencyTicks::UNDEFINED     45396000                       # Cumulative time (in ticks) in various power states
system.cpu.dcache.pwrStateResidencyTicks::UNDEFINED     45396000                       # Cumulative time (in ticks) in various power states
system.cpu.dcache.demand_hits::.cpu.data         4590                       # number of demand (read+write) hits
system.cpu.dcache.demand_hits::total             4590                       # number of demand (read+write) hits
system.cpu.dcache.overall_hits::.cpu.data         4610                       # number of overall hits
system.cpu.dcache.overall_hits::total            4610                       # number of overall hits
system.cpu.dcache.demand_misses::.cpu.data          164                       # number of demand (read+write) misses
system.cpu.dcache.demand_misses::total            164                       # number of demand (read+write) misses
system.cpu.dcache.overall_misses::.cpu.data          174                       # number of overall misses
system.cpu.dcache.overall_misses::total           174                       # number of overall misses
system.cpu.dcache.demand_miss_latency::.cpu.data      9208500                       # number of demand (read+write) miss cycles
system.cpu.dcache.demand_miss_latency::total      9208500                       # number of demand (read+write) miss cycles
system.cpu.dcache.overall_miss_latency::.cpu.data      9208500                       # number of overall miss cycles
system.cpu.dcache.overall_miss_latency::total      9208500                       # number of overall miss cycles
system.cpu.dcache.demand_accesses::.cpu.data         4754                       # number of demand (read+write) accesses
system.cpu.dcache.demand_accesses::total         4754                       # number of demand (read+write) accesses
system.cpu.dcache.overall_accesses::.cpu.data         4784                       # number of overall (read+write) accesses
system.cpu.dcache.overall_accesses::total         4784                       # number of overall (read+write) accesses
system.cpu.dcache.demand_miss_rate::.cpu.data     0.034497                       # miss rate for demand accesses
system.cpu.dcache.demand_miss_rate::total     0.034497                       # miss rate for demand accesses
system.cpu.dcache.overall_miss_rate::.cpu.data     0.036371                       # miss rate for overall accesses
system.cpu.dcache.overall_miss_rate::total     0.036371                       # miss rate for overall accesses
system.cpu.dcache.demand_avg_miss_latency::.cpu.data 56149.390244                       # average overall miss latency
system.cpu.dcache.demand_avg_miss_latency::total 56149.390244                       # average overall miss latency
system.cpu.dcache.overall_avg_miss_latency::.cpu.data 52922.413793                       # average overall miss latency
system.cpu.dcache.overall_avg_miss_latency::total 52922.413793                       # average overall miss latency
system.cpu.dcache.blocked_cycles::no_mshrs            0                       # number of cycles access was blocked
system.cpu.dcache.blocked_cycles::no_targets            0                       # number of cycles access was blocked
system.cpu.dcache.blocked::no_mshrs                 0                       # number of cycles access was blocked
system.cpu.dcache.blocked::no_targets               0                       # number of cycles access was blocked
system.cpu.dcache.avg_blocked_cycles::no_mshrs          nan                       # average number of cycles each access was blocked
system.cpu.dcache.avg_blocked_cycles::no_targets          nan                       # average number of cycles each access was blocked
system.cpu.dcache.demand_mshr_hits::.cpu.data            2                       # number of demand (read+write) MSHR hits
system.cpu.dcache.demand_mshr_hits::total            2                       # number of demand (read+write) MSHR hits
system.cpu.dcache.overall_mshr_hits::.cpu.data            2                       # number of overall MSHR hits
system.cpu.dcache.overall_mshr_hits::total            2                       # number of overall MSHR hits
system.cpu.dcache.demand_mshr_misses::.cpu.data          162                       # number of demand (read+write) MSHR misses
system.cpu.dcache.demand_mshr_misses::total          162                       # number of demand (read+write) MSHR misses
system.cpu.dcache.overall_mshr_misses::.cpu.data          170                       # number of overall MSHR misses
system.cpu.dcache.overall_mshr_misses::total          170                       # number of overall MSHR misses
system.cpu.dcache.demand_mshr_miss_latency::.cpu.data      8951500                       # number of demand (read+write) MSHR miss cycles
system.cpu.dcache.demand_mshr_miss_latency::total      8951500                       # number of demand (read+write) MSHR miss cycles
system.cpu.dcache.overall_mshr_miss_latency::.cpu.data      9411500                       # number of overall MSHR miss cycles
system.cpu.dcache.overall_mshr_miss_latency::total      9411500                       # number of overall MSHR miss cycles
system.cpu.dcache.demand_mshr_miss_rate::.cpu.data     0.034077                       # mshr miss rate for demand accesses
system.cpu.dcache.demand_mshr_miss_rate::total     0.034077                       # mshr miss rate for demand accesses
system.cpu.dcache.overall_mshr_miss_rate::.cpu.data     0.035535                       # mshr miss rate for overall accesses
system.cpu.dcache.overall_mshr_miss_rate::total     0.035535                       # mshr miss rate for overall accesses
system.cpu.dcache.demand_avg_mshr_miss_latency::.cpu.data 55256.172840                       # average overall mshr miss latency
system.cpu.dcache.demand_avg_mshr_miss_latency::total 55256.172840                       # average overall mshr miss latency
system.cpu.dcache.overall_avg_mshr_miss_latency::.cpu.data 55361.764706                       # average overall mshr miss latency
system.cpu.dcache.overall_avg_mshr_miss_latency::total 55361.764706                       # average overall mshr miss latency
system.cpu.dcache.replacements                      1                       # number of replacements
system.cpu.dcache.ReadReq_hits::.cpu.data         2306                       # number of ReadReq hits
system.cpu.dcache.ReadReq_hits::total            2306                       # number of ReadReq hits
system.cpu.dcache.ReadReq_misses::.cpu.data           93                       # number of ReadReq misses
system.cpu.dcache.ReadReq_misses::total            93                       # number of ReadReq misses
system.cpu.dcache.ReadReq_miss_latency::.cpu.data      5336500                       # number of ReadReq miss cycles
system.cpu.dcache.ReadReq_miss_latency::total      5336500                       # number of ReadReq miss cycles
system.cpu.dcache.ReadReq_accesses::.cpu.data         2399                       # number of ReadReq accesses(hits+misses)
system.cpu.dcache.ReadReq_accesses::total         2399                       # number of ReadReq accesses(hits+misses)
system.cpu.dcache.ReadReq_miss_rate::.cpu.data     0.038766                       # miss rate for ReadReq accesses
system.cpu.dcache.ReadReq_miss_rate::total     0.038766                       # miss rate for ReadReq accesses
system.cpu.dcache.ReadReq_avg_miss_latency::.cpu.data 57381.720430                       # average ReadReq miss latency
system.cpu.dcache.ReadReq_avg_miss_latency::total 57381.720430                       # average ReadReq miss latency
system.cpu.dcache.ReadReq_mshr_hits::.cpu.data            2                       # number of ReadReq MSHR hits
system.cpu.dcache.ReadReq_mshr_hits::total            2                       # number of ReadReq MSHR hits
system.cpu.dcache.ReadReq_mshr_misses::.cpu.data           91                       # number of ReadReq MSHR misses
system.cpu.dcache.ReadReq_mshr_misses::total           91                       # number of ReadReq MSHR misses
system.cpu.dcache.ReadReq_mshr_miss_latency::.cpu.data      5150500                       # number of ReadReq MSHR miss cycles
system.cpu.dcache.ReadReq_mshr_miss_latency::total      5150500                       # number of ReadReq MSHR miss cycles
system.cpu.dcache.ReadReq_mshr_miss_rate::.cpu.data     0.037932                       # mshr miss rate for ReadReq accesses
system.cpu.dcache.ReadReq_mshr_miss_rate::total     0.037932                       # mshr miss rate for ReadReq accesses
system.cpu.dcache.ReadReq_avg_mshr_miss_latency::.cpu.data 56598.901099                       # average ReadReq mshr miss latency
system.cpu.dcache.ReadReq_avg_mshr_miss_latency::total 56598.901099                       # average ReadReq mshr miss latency
system.cpu.dcache.WriteReq_hits::.cpu.data         2284                       # number of WriteReq hits
system.cpu.dcache.WriteReq_hits::total           2284                       # number of WriteReq hits
system.cpu.dcache.WriteReq_misses::.cpu.data           71                       # number of WriteReq misses
system.cpu.dcache.WriteReq_misses::total           71                       # number of WriteReq misses
system.cpu.dcache.WriteReq_miss_latency::.cpu.data      3872000                       # number of WriteReq miss cycles
system.cpu.dcache.WriteReq_miss_latency::total      3872000                       # number of WriteReq miss cycles
system.cpu.dcache.WriteReq_accesses::.cpu.data         2355                       # number of WriteReq accesses(hits+misses)
system.cpu.dcache.WriteReq_accesses::total         2355                       # number of WriteReq accesses(hits+misses)
system.cpu.dcache.WriteReq_miss_rate::.cpu.data     0.030149                       # miss rate for WriteReq accesses
system.cpu.dcache.WriteReq_miss_rate::total     0.030149                       # miss rate for WriteReq accesses
system.cpu.dcache.WriteReq_avg_miss_latency::.cpu.data 54535.211268                       # average WriteReq miss latency
system.cpu.dcache.WriteReq_avg_miss_latency::total 54535.211268                       # average WriteReq miss latency
system.cpu.dcache.WriteReq_mshr_misses::.cpu.data           71                       # number of WriteReq MSHR misses
system.cpu.dcache.WriteReq_mshr_misses::total           71                       # number of WriteReq MSHR misses
system.cpu.dcache.WriteReq_mshr_miss_latency::.cpu.data      3801000                       # number of WriteReq MSHR miss cycles
system.cpu.dcache.WriteReq_mshr_miss_latency::total      3801000                       # number of WriteReq MSHR miss cycles
system.cpu.dcache.WriteReq_mshr_miss_rate::.cpu.data     0.030149                       # mshr miss rate for WriteReq accesses
system.cpu.dcache.WriteReq_mshr_miss_rate::total     0.030149                       # mshr miss rate for WriteReq accesses
system.cpu.dcache.WriteReq_avg_mshr_miss_latency::.cpu.data 53535.211268                       # average WriteReq mshr miss latency
system.cpu.dcache.WriteReq_avg_mshr_miss_latency::total 53535.211268                       # average WriteReq mshr miss latency
system.cpu.dcache.SoftPFReq_hits::.cpu.data           20                       # number of SoftPFReq hits
system.cpu.dcache.SoftPFReq_hits::total            20                       # number of SoftPFReq hits
system.cpu.dcache.SoftPFReq_misses::.cpu.data           10                       # number of SoftPFReq misses
system.cpu.dcache.SoftPFReq_misses::total           10                       # number of SoftPFReq misses
system.cpu.dcache.SoftPFReq_accesses::.cpu.data           30                       # number of SoftPFReq accesses(hits+misses)
system.cpu.dcache.SoftPFReq_accesses::total           30                       # number of SoftPFReq accesses(hits+misses)
system.cpu.dcache.SoftPFReq_miss_rate::.cpu.data     0.333333                       # miss rate for SoftPFReq accesses
system.cpu.dcache.SoftPFReq_miss_rate::total     0.333333                       # miss rate for SoftPFReq accesses
system.cpu.dcache.SoftPFReq_mshr_misses::.cpu.data            8                       # number of SoftPFReq MSHR misses
system.cpu.dcache.SoftPFReq_mshr_misses::total            8                       # number of SoftPFReq MSHR misses
system.cpu.dcache.SoftPFReq_mshr_miss_latency::.cpu.data       460000                       # number of SoftPFReq MSHR miss cycles
system.cpu.dcache.SoftPFReq_mshr_miss_latency::total       460000                       # number of SoftPFReq MSHR miss cycles
system.cpu.dcache.SoftPFReq_mshr_miss_rate::.cpu.data     0.266667                       # mshr miss rate for SoftPFReq accesses
system.cpu.dcache.SoftPFReq_mshr_miss_rate::total     0.266667                       # mshr miss rate for SoftPFReq accesses
system.cpu.dcache.SoftPFReq_avg_mshr_miss_latency::.cpu.data        57500                       # average SoftPFReq mshr miss latency
system.cpu.dcache.SoftPFReq_avg_mshr_miss_latency::total        57500                       # average SoftPFReq mshr miss latency
system.cpu.dcache.LoadLockedReq_hits::.cpu.data           18                       # number of LoadLockedReq hits
system.cpu.dcache.LoadLockedReq_hits::total           18                       # number of LoadLockedReq hits
system.cpu.dcache.LoadLockedReq_accesses::.cpu.data           18                       # number of LoadLockedReq accesses(hits+misses)
system.cpu.dcache.LoadLockedReq_accesses::total           18                       # number of LoadLockedReq accesses(hits+misses)
system.cpu.dcache.StoreCondReq_hits::.cpu.data           18                       # number of StoreCondReq hits
system.cpu.dcache.StoreCondReq_hits::total           18                       # number of StoreCondReq hits
system.cpu.dcache.StoreCondReq_accesses::.cpu.data           18                       # number of StoreCondReq accesses(hits+misses)
system.cpu.dcache.StoreCondReq_accesses::total           18                       # number of StoreCondReq accesses(hits+misses)
system.cpu.dcache.tags.pwrStateResidencyTicks::UNDEFINED     45396000                       # Cumulative time (in ticks) in various power states
system.cpu.dcache.tags.tagsinuse           102.770730                       # Cycle average of tags in use
system.cpu.dcache.tags.total_refs                4816                       # Total number of references to valid blocks.
system.cpu.dcache.tags.sampled_refs               170                       # Sample count of references to valid blocks.
system.cpu.dcache.tags.avg_refs             28.329412                       # Average number of references to valid blocks.
system.cpu.dcache.tags.warmup_cycle            146000                       # Cycle when the warmup percentage was hit.
system.cpu.dcache.tags.occ_blocks::.cpu.data   102.770730                       # Average occupied blocks per requestor
system.cpu.dcache.tags.occ_percent::.cpu.data     0.100362                       # Average percentage of cache occupancy
system.cpu.dcache.tags.occ_percent::total     0.100362                       # Average percentage of cache occupancy
system.cpu.dcache.tags.occ_task_id_blocks::1024          169                       # Occupied blocks per task id
system.cpu.dcache.tags.age_task_id_blocks_1024::0           20                       # Occupied blocks per task id
system.cpu.dcache.tags.age_task_id_blocks_1024::1          149                       # Occupied blocks per task id
system.cpu.dcache.tags.occ_task_id_percent::1024     0.165039                       # Percentage of cache occupancy per task id
system.cpu.dcache.tags.tag_accesses              9810                       # Number of tag accesses
system.cpu.dcache.tags.data_accesses             9810                       # Number of data accesses

---------- End Simulation Statistics   ----------
