
---------- Begin Simulation Statistics ----------
final_tick                               114393031000                       # Number of ticks from beginning of simulation (restored from checkpoints and never reset)
host_inst_rate                                 558541                       # Simulator instruction rate (inst/s)
host_mem_usage                                 683928                       # Number of bytes of host memory used
host_op_rate                                   611222                       # Simulator op (including micro ops) rate (op/s)
host_seconds                                   179.04                       # Real time elapsed on the host
host_tick_rate                              638932165                       # Simulator tick rate (ticks/s)
sim_freq                                 1000000000000                       # Frequency of simulated ticks
sim_insts                                   100000001                       # Number of instructions simulated
sim_ops                                     109431937                       # Number of ops (including micro ops) simulated
sim_seconds                                  0.114393                       # Number of seconds simulated
sim_ticks                                114393031000                       # Number of ticks simulated
system.cpu.branchPred.BTBCorrect                    0                       # Number of correct BTB predictions (this stat may not work properly.
system.cpu.branchPred.BTBHitPct             87.596996                       # BTB Hit Percentage
system.cpu.branchPred.BTBHits                 8748072                       # Number of BTB hits
system.cpu.branchPred.BTBLookups              9986726                       # Number of BTB lookups
system.cpu.branchPred.RASInCorrect                348                       # Number of incorrect RAS predictions.
system.cpu.branchPred.condIncorrect            155024                       # Number of conditional branches incorrect
system.cpu.branchPred.condPredicted          16528265                       # Number of conditional branches predicted
system.cpu.branchPred.indirectHits             300026                       # Number of indirect target hits.
system.cpu.branchPred.indirectLookups          540255                       # Number of indirect predictor lookups.
system.cpu.branchPred.indirectMisses           240229                       # Number of indirect misses.
system.cpu.branchPred.lookups                20635695                       # Number of BP lookups
system.cpu.branchPred.usedRAS                 1050693                       # Number of times the RAS was used to get a target.
system.cpu.branchPredindirectMispredicted         1210                       # Number of mispredicted indirect branches.
system.cpu.committedInsts                   100000001                       # Number of instructions committed
system.cpu.committedOps                     109431937                       # Number of ops (including micro ops) committed
system.cpu.cpi                               1.143930                       # CPI: cycles per instruction
system.cpu.discardedOps                        732348                       # Number of ops (including micro ops) which were discarded before commit
system.cpu.dtb.accesses                             0                       # DTB accesses
system.cpu.dtb.align_faults                         0                       # Number of TLB faults due to alignment restrictions
system.cpu.dtb.domain_faults                        0                       # Number of TLB faults due to domain restrictions
system.cpu.dtb.flush_entries                        0                       # Number of entries that have been flushed from TLB
system.cpu.dtb.flush_tlb                            0                       # Number of times complete TLB was flushed
system.cpu.dtb.flush_tlb_asid                       0                       # Number of times TLB was flushed by ASID
system.cpu.dtb.flush_tlb_mva                        0                       # Number of times TLB was flushed by MVA
system.cpu.dtb.flush_tlb_mva_asid                   0                       # Number of times TLB was flushed by MVA & ASID
system.cpu.dtb.hits                                 0                       # DTB hits
system.cpu.dtb.inst_accesses                        0                       # ITB inst accesses
system.cpu.dtb.inst_hits                            0                       # ITB inst hits
system.cpu.dtb.inst_misses                          0                       # ITB inst misses
system.cpu.dtb.misses                               0                       # DTB misses
system.cpu.dtb.perms_faults                         0                       # Number of TLB faults due to permissions restrictions
system.cpu.dtb.prefetch_faults                      0                       # Number of TLB faults due to prefetch
system.cpu.dtb.read_accesses                        0                       # DTB read accesses
system.cpu.dtb.read_hits                            0                       # DTB read hits
system.cpu.dtb.read_misses                          0                       # DTB read misses
system.cpu.dtb.stage2_mmu.stage2_tlb.accesses            0                       # DTB accesses
system.cpu.dtb.stage2_mmu.stage2_tlb.align_faults            0                       # Number of TLB faults due to alignment restrictions
system.cpu.dtb.stage2_mmu.stage2_tlb.domain_faults            0                       # Number of TLB faults due to domain restrictions
system.cpu.dtb.stage2_mmu.stage2_tlb.flush_entries            0                       # Number of entries that have been flushed from TLB
system.cpu.dtb.stage2_mmu.stage2_tlb.flush_tlb            0                       # Number of times complete TLB was flushed
system.cpu.dtb.stage2_mmu.stage2_tlb.flush_tlb_asid            0                       # Number of times TLB was flushed by ASID
system.cpu.dtb.stage2_mmu.stage2_tlb.flush_tlb_mva            0                       # Number of times TLB was flushed by MVA
system.cpu.dtb.stage2_mmu.stage2_tlb.flush_tlb_mva_asid            0                       # Number of times TLB was flushed by MVA & ASID
system.cpu.dtb.stage2_mmu.stage2_tlb.hits            0                       # DTB hits
system.cpu.dtb.stage2_mmu.stage2_tlb.inst_accesses            0                       # ITB inst accesses
system.cpu.dtb.stage2_mmu.stage2_tlb.inst_hits            0                       # ITB inst hits
system.cpu.dtb.stage2_mmu.stage2_tlb.inst_misses            0                       # ITB inst misses
system.cpu.dtb.stage2_mmu.stage2_tlb.misses            0                       # DTB misses
system.cpu.dtb.stage2_mmu.stage2_tlb.perms_faults            0                       # Number of TLB faults due to permissions restrictions
system.cpu.dtb.stage2_mmu.stage2_tlb.prefetch_faults            0                       # Number of TLB faults due to prefetch
system.cpu.dtb.stage2_mmu.stage2_tlb.read_accesses            0                       # DTB read accesses
system.cpu.dtb.stage2_mmu.stage2_tlb.read_hits            0                       # DTB read hits
system.cpu.dtb.stage2_mmu.stage2_tlb.read_misses            0                       # DTB read misses
system.cpu.dtb.stage2_mmu.stage2_tlb.walker.walkRequestOrigin_Requested::Data            0                       # Table walker requests started/completed, data/inst
system.cpu.dtb.stage2_mmu.stage2_tlb.walker.walkRequestOrigin_Requested::Inst            0                       # Table walker requests started/completed, data/inst
system.cpu.dtb.stage2_mmu.stage2_tlb.walker.walkRequestOrigin_Requested::total            0                       # Table walker requests started/completed, data/inst
system.cpu.dtb.stage2_mmu.stage2_tlb.walker.walkRequestOrigin_Completed::Data            0                       # Table walker requests started/completed, data/inst
system.cpu.dtb.stage2_mmu.stage2_tlb.walker.walkRequestOrigin_Completed::Inst            0                       # Table walker requests started/completed, data/inst
system.cpu.dtb.stage2_mmu.stage2_tlb.walker.walkRequestOrigin_Completed::total            0                       # Table walker requests started/completed, data/inst
system.cpu.dtb.stage2_mmu.stage2_tlb.walker.walkRequestOrigin::total            0                       # Table walker requests started/completed, data/inst
system.cpu.dtb.stage2_mmu.stage2_tlb.walker.walks            0                       # Table walker walks requested
system.cpu.dtb.stage2_mmu.stage2_tlb.write_accesses            0                       # DTB write accesses
system.cpu.dtb.stage2_mmu.stage2_tlb.write_hits            0                       # DTB write hits
system.cpu.dtb.stage2_mmu.stage2_tlb.write_misses            0                       # DTB write misses
system.cpu.dtb.walker.walkRequestOrigin_Requested::Data            0                       # Table walker requests started/completed, data/inst
system.cpu.dtb.walker.walkRequestOrigin_Requested::Inst            0                       # Table walker requests started/completed, data/inst
system.cpu.dtb.walker.walkRequestOrigin_Requested::total            0                       # Table walker requests started/completed, data/inst
system.cpu.dtb.walker.walkRequestOrigin_Completed::Data            0                       # Table walker requests started/completed, data/inst
system.cpu.dtb.walker.walkRequestOrigin_Completed::Inst            0                       # Table walker requests started/completed, data/inst
system.cpu.dtb.walker.walkRequestOrigin_Completed::total            0                       # Table walker requests started/completed, data/inst
system.cpu.dtb.walker.walkRequestOrigin::total            0                       # Table walker requests started/completed, data/inst
system.cpu.dtb.walker.walks                         0                       # Table walker walks requested
system.cpu.dtb.write_accesses                       0                       # DTB write accesses
system.cpu.dtb.write_hits                           0                       # DTB write hits
system.cpu.dtb.write_misses                         0                       # DTB write misses
system.cpu.fetch2.amo_instructions                  0                       # Number of memory atomic instructions successfully decoded
system.cpu.fetch2.fp_instructions                   0                       # Number of floating point instructions successfully decoded
system.cpu.fetch2.int_instructions           49964629                       # Number of integer instructions successfully decoded
system.cpu.fetch2.load_instructions          17199366                       # Number of memory load instructions successfully decoded
system.cpu.fetch2.store_instructions         10036334                       # Number of memory store instructions successfully decoded
system.cpu.fetch2.vec_instructions                  0                       # Number of SIMD instructions successfully decoded
system.cpu.idleCycles                         3701196                       # Total number of cycles that the object has spent stopped
system.cpu.ipc                               0.874179                       # IPC: instructions per cycle
system.cpu.itb.accesses                             0                       # DTB accesses
system.cpu.itb.align_faults                         0                       # Number of TLB faults due to alignment restrictions
system.cpu.itb.domain_faults                        0                       # Number of TLB faults due to domain restrictions
system.cpu.itb.flush_entries                        0                       # Number of entries that have been flushed from TLB
system.cpu.itb.flush_tlb                            0                       # Number of times complete TLB was flushed
system.cpu.itb.flush_tlb_asid                       0                       # Number of times TLB was flushed by ASID
system.cpu.itb.flush_tlb_mva                        0                       # Number of times TLB was flushed by MVA
system.cpu.itb.flush_tlb_mva_asid                   0                       # Number of times TLB was flushed by MVA & ASID
system.cpu.itb.hits                                 0                       # DTB hits
system.cpu.itb.inst_accesses                        0                       # ITB inst accesses
system.cpu.itb.inst_hits                            0                       # ITB inst hits
system.cpu.itb.inst_misses                          0                       # ITB inst misses
system.cpu.itb.misses                               0                       # DTB misses
system.cpu.itb.perms_faults                         0                       # Number of TLB faults due to permissions restrictions
system.cpu.itb.prefetch_faults                      0                       # Number of TLB faults due to prefetch
system.cpu.itb.read_accesses                        0                       # DTB read accesses
system.cpu.itb.read_hits                            0                       # DTB read hits
system.cpu.itb.read_misses                          0                       # DTB read misses
system.cpu.itb.stage2_mmu.stage2_tlb.accesses            0                       # DTB accesses
system.cpu.itb.stage2_mmu.stage2_tlb.align_faults            0                       # Number of TLB faults due to alignment restrictions
system.cpu.itb.stage2_mmu.stage2_tlb.domain_faults            0                       # Number of TLB faults due to domain restrictions
system.cpu.itb.stage2_mmu.stage2_tlb.flush_entries            0                       # Number of entries that have been flushed from TLB
system.cpu.itb.stage2_mmu.stage2_tlb.flush_tlb            0                       # Number of times complete TLB was flushed
system.cpu.itb.stage2_mmu.stage2_tlb.flush_tlb_asid            0                       # Number of times TLB was flushed by ASID
system.cpu.itb.stage2_mmu.stage2_tlb.flush_tlb_mva            0                       # Number of times TLB was flushed by MVA
system.cpu.itb.stage2_mmu.stage2_tlb.flush_tlb_mva_asid            0                       # Number of times TLB was flushed by MVA & ASID
system.cpu.itb.stage2_mmu.stage2_tlb.hits            0                       # DTB hits
system.cpu.itb.stage2_mmu.stage2_tlb.inst_accesses            0                       # ITB inst accesses
system.cpu.itb.stage2_mmu.stage2_tlb.inst_hits            0                       # ITB inst hits
system.cpu.itb.stage2_mmu.stage2_tlb.inst_misses            0                       # ITB inst misses
system.cpu.itb.stage2_mmu.stage2_tlb.misses            0                       # DTB misses
system.cpu.itb.stage2_mmu.stage2_tlb.perms_faults            0                       # Number of TLB faults due to permissions restrictions
system.cpu.itb.stage2_mmu.stage2_tlb.prefetch_faults            0                       # Number of TLB faults due to prefetch
system.cpu.itb.stage2_mmu.stage2_tlb.read_accesses            0                       # DTB read accesses
system.cpu.itb.stage2_mmu.stage2_tlb.read_hits            0                       # DTB read hits
system.cpu.itb.stage2_mmu.stage2_tlb.read_misses            0                       # DTB read misses
system.cpu.itb.stage2_mmu.stage2_tlb.walker.walkRequestOrigin_Requested::Data            0                       # Table walker requests started/completed, data/inst
system.cpu.itb.stage2_mmu.stage2_tlb.walker.walkRequestOrigin_Requested::Inst            0                       # Table walker requests started/completed, data/inst
system.cpu.itb.stage2_mmu.stage2_tlb.walker.walkRequestOrigin_Requested::total            0                       # Table walker requests started/completed, data/inst
system.cpu.itb.stage2_mmu.stage2_tlb.walker.walkRequestOrigin_Completed::Data            0                       # Table walker requests started/completed, data/inst
system.cpu.itb.stage2_mmu.stage2_tlb.walker.walkRequestOrigin_Completed::Inst            0                       # Table walker requests started/completed, data/inst
system.cpu.itb.stage2_mmu.stage2_tlb.walker.walkRequestOrigin_Completed::total            0                       # Table walker requests started/completed, data/inst
system.cpu.itb.stage2_mmu.stage2_tlb.walker.walkRequestOrigin::total            0                       # Table walker requests started/completed, data/inst
system.cpu.itb.stage2_mmu.stage2_tlb.walker.walks            0                       # Table walker walks requested
system.cpu.itb.stage2_mmu.stage2_tlb.write_accesses            0                       # DTB write accesses
system.cpu.itb.stage2_mmu.stage2_tlb.write_hits            0                       # DTB write hits
system.cpu.itb.stage2_mmu.stage2_tlb.write_misses            0                       # DTB write misses
system.cpu.itb.walker.walkRequestOrigin_Requested::Data            0                       # Table walker requests started/completed, data/inst
system.cpu.itb.walker.walkRequestOrigin_Requested::Inst            0                       # Table walker requests started/completed, data/inst
system.cpu.itb.walker.walkRequestOrigin_Requested::total            0                       # Table walker requests started/completed, data/inst
system.cpu.itb.walker.walkRequestOrigin_Completed::Data            0                       # Table walker requests started/completed, data/inst
system.cpu.itb.walker.walkRequestOrigin_Completed::Inst            0                       # Table walker requests started/completed, data/inst
system.cpu.itb.walker.walkRequestOrigin_Completed::total            0                       # Table walker requests started/completed, data/inst
system.cpu.itb.walker.walkRequestOrigin::total            0                       # Table walker requests started/completed, data/inst
system.cpu.itb.walker.walks                         0                       # Table walker walks requested
system.cpu.itb.write_accesses                       0                       # DTB write accesses
system.cpu.itb.write_hits                           0                       # DTB write hits
system.cpu.itb.write_misses                         0                       # DTB write misses
system.cpu.numCycles                        114393031                       # number of cpu cycles simulated
system.cpu.numFetchSuspends                         0                       # Number of times Execute suspended instruction fetching
system.cpu.numWorkItemsCompleted                    0                       # number of work items this cpu completed
system.cpu.numWorkItemsStarted                      0                       # number of work items this cpu started
system.cpu.op_class_0::No_OpClass                   0      0.00%      0.00% # Class of committed instruction
system.cpu.op_class_0::IntAlu                72955303     66.67%     66.67% # Class of committed instruction
system.cpu.op_class_0::IntMult                 568365      0.52%     67.19% # Class of committed instruction
system.cpu.op_class_0::IntDiv                       0      0.00%     67.19% # Class of committed instruction
system.cpu.op_class_0::FloatAdd                     0      0.00%     67.19% # Class of committed instruction
system.cpu.op_class_0::FloatCmp                     0      0.00%     67.19% # Class of committed instruction
system.cpu.op_class_0::FloatCvt                     0      0.00%     67.19% # Class of committed instruction
system.cpu.op_class_0::FloatMult                    0      0.00%     67.19% # Class of committed instruction
system.cpu.op_class_0::FloatMultAcc                 0      0.00%     67.19% # Class of committed instruction
system.cpu.op_class_0::FloatDiv                     0      0.00%     67.19% # Class of committed instruction
system.cpu.op_class_0::FloatMisc                    0      0.00%     67.19% # Class of committed instruction
system.cpu.op_class_0::FloatSqrt                    0      0.00%     67.19% # Class of committed instruction
system.cpu.op_class_0::SimdAdd                 241252      0.22%     67.41% # Class of committed instruction
system.cpu.op_class_0::SimdAddAcc                   0      0.00%     67.41% # Class of committed instruction
system.cpu.op_class_0::SimdAlu                 154720      0.14%     67.55% # Class of committed instruction
system.cpu.op_class_0::SimdCmp                 120626      0.11%     67.66% # Class of committed instruction
system.cpu.op_class_0::SimdCvt                      0      0.00%     67.66% # Class of committed instruction
system.cpu.op_class_0::SimdMisc                 44544      0.04%     67.70% # Class of committed instruction
system.cpu.op_class_0::SimdMult                     0      0.00%     67.70% # Class of committed instruction
system.cpu.op_class_0::SimdMultAcc                  0      0.00%     67.70% # Class of committed instruction
system.cpu.op_class_0::SimdShift                    0      0.00%     67.70% # Class of committed instruction
system.cpu.op_class_0::SimdShiftAcc                 0      0.00%     67.70% # Class of committed instruction
system.cpu.op_class_0::SimdDiv                      0      0.00%     67.70% # Class of committed instruction
system.cpu.op_class_0::SimdSqrt                     0      0.00%     67.70% # Class of committed instruction
system.cpu.op_class_0::SimdFloatAdd                 0      0.00%     67.70% # Class of committed instruction
system.cpu.op_class_0::SimdFloatAlu                 0      0.00%     67.70% # Class of committed instruction
system.cpu.op_class_0::SimdFloatCmp                 0      0.00%     67.70% # Class of committed instruction
system.cpu.op_class_0::SimdFloatCvt                 0      0.00%     67.70% # Class of committed instruction
system.cpu.op_class_0::SimdFloatDiv                 0      0.00%     67.70% # Class of committed instruction
system.cpu.op_class_0::SimdFloatMisc           166465      0.15%     67.85% # Class of committed instruction
system.cpu.op_class_0::SimdFloatMult                0      0.00%     67.85% # Class of committed instruction
system.cpu.op_class_0::SimdFloatMultAcc             0      0.00%     67.85% # Class of committed instruction
system.cpu.op_class_0::SimdFloatSqrt                0      0.00%     67.85% # Class of committed instruction
system.cpu.op_class_0::SimdReduceAdd                0      0.00%     67.85% # Class of committed instruction
system.cpu.op_class_0::SimdReduceAlu                0      0.00%     67.85% # Class of committed instruction
system.cpu.op_class_0::SimdReduceCmp                0      0.00%     67.85% # Class of committed instruction
system.cpu.op_class_0::SimdFloatReduceAdd            0      0.00%     67.85% # Class of committed instruction
system.cpu.op_class_0::SimdFloatReduceCmp            0      0.00%     67.85% # Class of committed instruction
system.cpu.op_class_0::SimdAes                      0      0.00%     67.85% # Class of committed instruction
system.cpu.op_class_0::SimdAesMix                   0      0.00%     67.85% # Class of committed instruction
system.cpu.op_class_0::SimdSha1Hash                 0      0.00%     67.85% # Class of committed instruction
system.cpu.op_class_0::SimdSha1Hash2                0      0.00%     67.85% # Class of committed instruction
system.cpu.op_class_0::SimdSha256Hash               0      0.00%     67.85% # Class of committed instruction
system.cpu.op_class_0::SimdSha256Hash2              0      0.00%     67.85% # Class of committed instruction
system.cpu.op_class_0::SimdShaSigma2                0      0.00%     67.85% # Class of committed instruction
system.cpu.op_class_0::SimdShaSigma3                0      0.00%     67.85% # Class of committed instruction
system.cpu.op_class_0::SimdPredAlu                  0      0.00%     67.85% # Class of committed instruction
system.cpu.op_class_0::MemRead               20646465     18.87%     86.72% # Class of committed instruction
system.cpu.op_class_0::MemWrite              14534197     13.28%    100.00% # Class of committed instruction
system.cpu.op_class_0::FloatMemRead                 0      0.00%    100.00% # Class of committed instruction
system.cpu.op_class_0::FloatMemWrite                0      0.00%    100.00% # Class of committed instruction
system.cpu.op_class_0::IprAccess                    0      0.00%    100.00% # Class of committed instruction
system.cpu.op_class_0::InstPrefetch                 0      0.00%    100.00% # Class of committed instruction
system.cpu.op_class_0::total                109431937                       # Class of committed instruction
system.cpu.tickCycles                       110691835                       # Number of cycles that the object actually ticked
system.cpu.workload.numSyscalls                    86                       # Number of system calls
system.membus.snoop_filter.hit_multi_requests            0                       # Number of requests hitting in the snoop filter with multiple (>1) holders of the requested data.
system.membus.snoop_filter.hit_multi_snoops            0                       # Number of snoops hitting in the snoop filter with multiple (>1) holders of the requested data.
system.membus.snoop_filter.hit_single_requests        38093                       # Number of requests hitting in the snoop filter with a single holder of the requested data.
system.membus.snoop_filter.hit_single_snoops            0                       # Number of snoops hitting in the snoop filter with a single holder of the requested data.
system.membus.snoop_filter.tot_requests         84935                       # Total number of requests made to the snoop filter.
system.membus.snoop_filter.tot_snoops               0                       # Total number of snoops made to the snoop filter.
system.tol2bus.snoop_filter.hit_multi_requests           23                       # Number of requests hitting in the snoop filter with multiple (>1) holders of the requested data.
system.tol2bus.snoop_filter.hit_multi_snoops            8                       # Number of snoops hitting in the snoop filter with multiple (>1) holders of the requested data.
system.tol2bus.snoop_filter.hit_single_requests        54459                       # Number of requests hitting in the snoop filter with a single holder of the requested data.
system.tol2bus.snoop_filter.hit_single_snoops         1489                       # Number of snoops hitting in the snoop filter with a single holder of the requested data.
system.tol2bus.snoop_filter.tot_requests       110451                       # Total number of requests made to the snoop filter.
system.tol2bus.snoop_filter.tot_snoops           1497                       # Total number of snoops made to the snoop filter.
system.membus.pwrStateResidencyTicks::UNDEFINED 114393031000                       # Cumulative time (in ticks) in various power states
system.membus.trans_dist::ReadResp               8035                       # Transaction distribution
system.membus.trans_dist::WritebackDirty        37589                       # Transaction distribution
system.membus.trans_dist::CleanEvict              499                       # Transaction distribution
system.membus.trans_dist::ReadExReq             38812                       # Transaction distribution
system.membus.trans_dist::ReadExResp            38812                       # Transaction distribution
system.membus.trans_dist::ReadSharedReq          8035                       # Transaction distribution
system.membus.pkt_count_system.l2.mem_side::system.mem_ctrls.port       131782                       # Packet count per connected master and slave (bytes)
system.membus.pkt_count::total                 131782                       # Packet count per connected master and slave (bytes)
system.membus.pkt_size_system.l2.mem_side::system.mem_ctrls.port      5403904                       # Cumulative packet size per connected master and slave (bytes)
system.membus.pkt_size::total                 5403904                       # Cumulative packet size per connected master and slave (bytes)
system.membus.snoops                                0                       # Total snoops (count)
system.membus.snoopTraffic                          0                       # Total snoop traffic (bytes)
system.membus.snoop_fanout::samples             46847                       # Request fanout histogram
system.membus.snoop_fanout::mean                    0                       # Request fanout histogram
system.membus.snoop_fanout::stdev                   0                       # Request fanout histogram
system.membus.snoop_fanout::underflows              0      0.00%      0.00% # Request fanout histogram
system.membus.snoop_fanout::0                   46847    100.00%    100.00% # Request fanout histogram
system.membus.snoop_fanout::1                       0      0.00%    100.00% # Request fanout histogram
system.membus.snoop_fanout::overflows               0      0.00%    100.00% # Request fanout histogram
system.membus.snoop_fanout::min_value               0                       # Request fanout histogram
system.membus.snoop_fanout::max_value               0                       # Request fanout histogram
system.membus.snoop_fanout::total               46847                       # Request fanout histogram
system.membus.respLayer1.occupancy          253029750                       # Layer occupancy (ticks)
system.membus.respLayer1.utilization              0.2                       # Layer utilization (%)
system.membus.reqLayer0.occupancy           235291000                       # Layer occupancy (ticks)
system.membus.reqLayer0.utilization               0.2                       # Layer utilization (%)
system.tol2bus.pwrStateResidencyTicks::UNDEFINED 114393031000                       # Cumulative time (in ticks) in various power states
system.tol2bus.trans_dist::ReadResp             17061                       # Transaction distribution
system.tol2bus.trans_dist::WritebackDirty        88062                       # Transaction distribution
system.tol2bus.trans_dist::WritebackClean            2                       # Transaction distribution
system.tol2bus.trans_dist::CleanEvict            5646                       # Transaction distribution
system.tol2bus.trans_dist::ReadExReq            38935                       # Transaction distribution
system.tol2bus.trans_dist::ReadExResp           38935                       # Transaction distribution
system.tol2bus.trans_dist::ReadCleanReq           519                       # Transaction distribution
system.tol2bus.trans_dist::ReadSharedReq        16542                       # Transaction distribution
system.tol2bus.pkt_count_system.cpu.icache.mem_side::system.l2.cpu_side         1040                       # Packet count per connected master and slave (bytes)
system.tol2bus.pkt_count_system.cpu.dcache.mem_side::system.l2.cpu_side       165407                       # Packet count per connected master and slave (bytes)
system.tol2bus.pkt_count::total                166447                       # Packet count per connected master and slave (bytes)
system.tol2bus.pkt_size_system.cpu.icache.mem_side::system.l2.cpu_side        33344                       # Cumulative packet size per connected master and slave (bytes)
system.tol2bus.pkt_size_system.cpu.dcache.mem_side::system.l2.cpu_side      6780800                       # Cumulative packet size per connected master and slave (bytes)
system.tol2bus.pkt_size::total                6814144                       # Cumulative packet size per connected master and slave (bytes)
system.tol2bus.snoops                           39255                       # Total snoops (count)
system.tol2bus.snoopTraffic                   2405696                       # Total snoop traffic (bytes)
system.tol2bus.snoop_fanout::samples            95251                       # Request fanout histogram
system.tol2bus.snoop_fanout::mean            0.016084                       # Request fanout histogram
system.tol2bus.snoop_fanout::stdev           0.126465                       # Request fanout histogram
system.tol2bus.snoop_fanout::underflows             0      0.00%      0.00% # Request fanout histogram
system.tol2bus.snoop_fanout::0                  93727     98.40%     98.40% # Request fanout histogram
system.tol2bus.snoop_fanout::1                   1516      1.59%     99.99% # Request fanout histogram
system.tol2bus.snoop_fanout::2                      8      0.01%    100.00% # Request fanout histogram
system.tol2bus.snoop_fanout::overflows              0      0.00%    100.00% # Request fanout histogram
system.tol2bus.snoop_fanout::min_value              0                       # Request fanout histogram
system.tol2bus.snoop_fanout::max_value              2                       # Request fanout histogram
system.tol2bus.snoop_fanout::total              95251                       # Request fanout histogram
system.tol2bus.reqLayer0.occupancy          211401000                       # Layer occupancy (ticks)
system.tol2bus.reqLayer0.utilization              0.2                       # Layer utilization (%)
system.tol2bus.respLayer1.occupancy         166435995                       # Layer occupancy (ticks)
system.tol2bus.respLayer1.utilization             0.1                       # Layer utilization (%)
system.tol2bus.respLayer0.occupancy           1557999                       # Layer occupancy (ticks)
system.tol2bus.respLayer0.utilization             0.0                       # Layer utilization (%)
system.voltage_domain.voltage                       1                       # Voltage in Volts
system.clk_domain.clock                          1000                       # Clock period in ticks
system.l2.pwrStateResidencyTicks::UNDEFINED 114393031000                       # Cumulative time (in ticks) in various power states
system.l2.demand_hits::.cpu.inst                    6                       # number of demand (read+write) hits
system.l2.demand_hits::.cpu.data                 9137                       # number of demand (read+write) hits
system.l2.demand_hits::total                     9143                       # number of demand (read+write) hits
system.l2.overall_hits::.cpu.inst                   6                       # number of overall hits
system.l2.overall_hits::.cpu.data                9137                       # number of overall hits
system.l2.overall_hits::total                    9143                       # number of overall hits
system.l2.demand_misses::.cpu.inst                513                       # number of demand (read+write) misses
system.l2.demand_misses::.cpu.data              46340                       # number of demand (read+write) misses
system.l2.demand_misses::total                  46853                       # number of demand (read+write) misses
system.l2.overall_misses::.cpu.inst               513                       # number of overall misses
system.l2.overall_misses::.cpu.data             46340                       # number of overall misses
system.l2.overall_misses::total                 46853                       # number of overall misses
system.l2.demand_miss_latency::.cpu.inst     50027000                       # number of demand (read+write) miss cycles
system.l2.demand_miss_latency::.cpu.data   5124148000                       # number of demand (read+write) miss cycles
system.l2.demand_miss_latency::total       5174175000                       # number of demand (read+write) miss cycles
system.l2.overall_miss_latency::.cpu.inst     50027000                       # number of overall miss cycles
system.l2.overall_miss_latency::.cpu.data   5124148000                       # number of overall miss cycles
system.l2.overall_miss_latency::total      5174175000                       # number of overall miss cycles
system.l2.demand_accesses::.cpu.inst              519                       # number of demand (read+write) accesses
system.l2.demand_accesses::.cpu.data            55477                       # number of demand (read+write) accesses
system.l2.demand_accesses::total                55996                       # number of demand (read+write) accesses
system.l2.overall_accesses::.cpu.inst             519                       # number of overall (read+write) accesses
system.l2.overall_accesses::.cpu.data           55477                       # number of overall (read+write) accesses
system.l2.overall_accesses::total               55996                       # number of overall (read+write) accesses
system.l2.demand_miss_rate::.cpu.inst        0.988439                       # miss rate for demand accesses
system.l2.demand_miss_rate::.cpu.data        0.835301                       # miss rate for demand accesses
system.l2.demand_miss_rate::total            0.836720                       # miss rate for demand accesses
system.l2.overall_miss_rate::.cpu.inst       0.988439                       # miss rate for overall accesses
system.l2.overall_miss_rate::.cpu.data       0.835301                       # miss rate for overall accesses
system.l2.overall_miss_rate::total           0.836720                       # miss rate for overall accesses
system.l2.demand_avg_miss_latency::.cpu.inst 97518.518519                       # average overall miss latency
system.l2.demand_avg_miss_latency::.cpu.data 110577.211912                       # average overall miss latency
system.l2.demand_avg_miss_latency::total 110434.230465                       # average overall miss latency
system.l2.overall_avg_miss_latency::.cpu.inst 97518.518519                       # average overall miss latency
system.l2.overall_avg_miss_latency::.cpu.data 110577.211912                       # average overall miss latency
system.l2.overall_avg_miss_latency::total 110434.230465                       # average overall miss latency
system.l2.blocked_cycles::no_mshrs                  0                       # number of cycles access was blocked
system.l2.blocked_cycles::no_targets                0                       # number of cycles access was blocked
system.l2.blocked::no_mshrs                         0                       # number of cycles access was blocked
system.l2.blocked::no_targets                       0                       # number of cycles access was blocked
system.l2.avg_blocked_cycles::no_mshrs            nan                       # average number of cycles each access was blocked
system.l2.avg_blocked_cycles::no_targets          nan                       # average number of cycles each access was blocked
system.l2.writebacks::.writebacks               37589                       # number of writebacks
system.l2.writebacks::total                     37589                       # number of writebacks
system.l2.demand_mshr_hits::.cpu.inst               1                       # number of demand (read+write) MSHR hits
system.l2.demand_mshr_hits::.cpu.data               5                       # number of demand (read+write) MSHR hits
system.l2.demand_mshr_hits::total                   6                       # number of demand (read+write) MSHR hits
system.l2.overall_mshr_hits::.cpu.inst              1                       # number of overall MSHR hits
system.l2.overall_mshr_hits::.cpu.data              5                       # number of overall MSHR hits
system.l2.overall_mshr_hits::total                  6                       # number of overall MSHR hits
system.l2.demand_mshr_misses::.cpu.inst           512                       # number of demand (read+write) MSHR misses
system.l2.demand_mshr_misses::.cpu.data         46335                       # number of demand (read+write) MSHR misses
system.l2.demand_mshr_misses::total             46847                       # number of demand (read+write) MSHR misses
system.l2.overall_mshr_misses::.cpu.inst          512                       # number of overall MSHR misses
system.l2.overall_mshr_misses::.cpu.data        46335                       # number of overall MSHR misses
system.l2.overall_mshr_misses::total            46847                       # number of overall MSHR misses
system.l2.demand_mshr_miss_latency::.cpu.inst     39707000                       # number of demand (read+write) MSHR miss cycles
system.l2.demand_mshr_miss_latency::.cpu.data   4197040000                       # number of demand (read+write) MSHR miss cycles
system.l2.demand_mshr_miss_latency::total   4236747000                       # number of demand (read+write) MSHR miss cycles
system.l2.overall_mshr_miss_latency::.cpu.inst     39707000                       # number of overall MSHR miss cycles
system.l2.overall_mshr_miss_latency::.cpu.data   4197040000                       # number of overall MSHR miss cycles
system.l2.overall_mshr_miss_latency::total   4236747000                       # number of overall MSHR miss cycles
system.l2.demand_mshr_miss_rate::.cpu.inst     0.986513                       # mshr miss rate for demand accesses
system.l2.demand_mshr_miss_rate::.cpu.data     0.835211                       # mshr miss rate for demand accesses
system.l2.demand_mshr_miss_rate::total       0.836613                       # mshr miss rate for demand accesses
system.l2.overall_mshr_miss_rate::.cpu.inst     0.986513                       # mshr miss rate for overall accesses
system.l2.overall_mshr_miss_rate::.cpu.data     0.835211                       # mshr miss rate for overall accesses
system.l2.overall_mshr_miss_rate::total      0.836613                       # mshr miss rate for overall accesses
system.l2.demand_avg_mshr_miss_latency::.cpu.inst 77552.734375                       # average overall mshr miss latency
system.l2.demand_avg_mshr_miss_latency::.cpu.data 90580.338837                       # average overall mshr miss latency
system.l2.demand_avg_mshr_miss_latency::total 90437.957607                       # average overall mshr miss latency
system.l2.overall_avg_mshr_miss_latency::.cpu.inst 77552.734375                       # average overall mshr miss latency
system.l2.overall_avg_mshr_miss_latency::.cpu.data 90580.338837                       # average overall mshr miss latency
system.l2.overall_avg_mshr_miss_latency::total 90437.957607                       # average overall mshr miss latency
system.l2.replacements                          39255                       # number of replacements
system.l2.WritebackDirty_hits::.writebacks        50473                       # number of WritebackDirty hits
system.l2.WritebackDirty_hits::total            50473                       # number of WritebackDirty hits
system.l2.WritebackDirty_accesses::.writebacks        50473                       # number of WritebackDirty accesses(hits+misses)
system.l2.WritebackDirty_accesses::total        50473                       # number of WritebackDirty accesses(hits+misses)
system.l2.WritebackClean_hits::.writebacks            1                       # number of WritebackClean hits
system.l2.WritebackClean_hits::total                1                       # number of WritebackClean hits
system.l2.WritebackClean_accesses::.writebacks            1                       # number of WritebackClean accesses(hits+misses)
system.l2.WritebackClean_accesses::total            1                       # number of WritebackClean accesses(hits+misses)
system.l2.CleanEvict_mshr_misses::.writebacks          330                       # number of CleanEvict MSHR misses
system.l2.CleanEvict_mshr_misses::total           330                       # number of CleanEvict MSHR misses
system.l2.CleanEvict_mshr_miss_rate::.writebacks          inf                       # mshr miss rate for CleanEvict accesses
system.l2.CleanEvict_mshr_miss_rate::total          inf                       # mshr miss rate for CleanEvict accesses
system.l2.ReadExReq_hits::.cpu.data               123                       # number of ReadExReq hits
system.l2.ReadExReq_hits::total                   123                       # number of ReadExReq hits
system.l2.ReadExReq_misses::.cpu.data           38812                       # number of ReadExReq misses
system.l2.ReadExReq_misses::total               38812                       # number of ReadExReq misses
system.l2.ReadExReq_miss_latency::.cpu.data   4270679000                       # number of ReadExReq miss cycles
system.l2.ReadExReq_miss_latency::total    4270679000                       # number of ReadExReq miss cycles
system.l2.ReadExReq_accesses::.cpu.data         38935                       # number of ReadExReq accesses(hits+misses)
system.l2.ReadExReq_accesses::total             38935                       # number of ReadExReq accesses(hits+misses)
system.l2.ReadExReq_miss_rate::.cpu.data     0.996841                       # miss rate for ReadExReq accesses
system.l2.ReadExReq_miss_rate::total         0.996841                       # miss rate for ReadExReq accesses
system.l2.ReadExReq_avg_miss_latency::.cpu.data 110035.014944                       # average ReadExReq miss latency
system.l2.ReadExReq_avg_miss_latency::total 110035.014944                       # average ReadExReq miss latency
system.l2.ReadExReq_mshr_misses::.cpu.data        38812                       # number of ReadExReq MSHR misses
system.l2.ReadExReq_mshr_misses::total          38812                       # number of ReadExReq MSHR misses
system.l2.ReadExReq_mshr_miss_latency::.cpu.data   3494439000                       # number of ReadExReq MSHR miss cycles
system.l2.ReadExReq_mshr_miss_latency::total   3494439000                       # number of ReadExReq MSHR miss cycles
system.l2.ReadExReq_mshr_miss_rate::.cpu.data     0.996841                       # mshr miss rate for ReadExReq accesses
system.l2.ReadExReq_mshr_miss_rate::total     0.996841                       # mshr miss rate for ReadExReq accesses
system.l2.ReadExReq_avg_mshr_miss_latency::.cpu.data 90035.014944                       # average ReadExReq mshr miss latency
system.l2.ReadExReq_avg_mshr_miss_latency::total 90035.014944                       # average ReadExReq mshr miss latency
system.l2.ReadCleanReq_hits::.cpu.inst              6                       # number of ReadCleanReq hits
system.l2.ReadCleanReq_hits::total                  6                       # number of ReadCleanReq hits
system.l2.ReadCleanReq_misses::.cpu.inst          513                       # number of ReadCleanReq misses
system.l2.ReadCleanReq_misses::total              513                       # number of ReadCleanReq misses
system.l2.ReadCleanReq_miss_latency::.cpu.inst     50027000                       # number of ReadCleanReq miss cycles
system.l2.ReadCleanReq_miss_latency::total     50027000                       # number of ReadCleanReq miss cycles
system.l2.ReadCleanReq_accesses::.cpu.inst          519                       # number of ReadCleanReq accesses(hits+misses)
system.l2.ReadCleanReq_accesses::total            519                       # number of ReadCleanReq accesses(hits+misses)
system.l2.ReadCleanReq_miss_rate::.cpu.inst     0.988439                       # miss rate for ReadCleanReq accesses
system.l2.ReadCleanReq_miss_rate::total      0.988439                       # miss rate for ReadCleanReq accesses
system.l2.ReadCleanReq_avg_miss_latency::.cpu.inst 97518.518519                       # average ReadCleanReq miss latency
system.l2.ReadCleanReq_avg_miss_latency::total 97518.518519                       # average ReadCleanReq miss latency
system.l2.ReadCleanReq_mshr_hits::.cpu.inst            1                       # number of ReadCleanReq MSHR hits
system.l2.ReadCleanReq_mshr_hits::total             1                       # number of ReadCleanReq MSHR hits
system.l2.ReadCleanReq_mshr_misses::.cpu.inst          512                       # number of ReadCleanReq MSHR misses
system.l2.ReadCleanReq_mshr_misses::total          512                       # number of ReadCleanReq MSHR misses
system.l2.ReadCleanReq_mshr_miss_latency::.cpu.inst     39707000                       # number of ReadCleanReq MSHR miss cycles
system.l2.ReadCleanReq_mshr_miss_latency::total     39707000                       # number of ReadCleanReq MSHR miss cycles
system.l2.ReadCleanReq_mshr_miss_rate::.cpu.inst     0.986513                       # mshr miss rate for ReadCleanReq accesses
system.l2.ReadCleanReq_mshr_miss_rate::total     0.986513                       # mshr miss rate for ReadCleanReq accesses
system.l2.ReadCleanReq_avg_mshr_miss_latency::.cpu.inst 77552.734375                       # average ReadCleanReq mshr miss latency
system.l2.ReadCleanReq_avg_mshr_miss_latency::total 77552.734375                       # average ReadCleanReq mshr miss latency
system.l2.ReadSharedReq_hits::.cpu.data          9014                       # number of ReadSharedReq hits
system.l2.ReadSharedReq_hits::total              9014                       # number of ReadSharedReq hits
system.l2.ReadSharedReq_misses::.cpu.data         7528                       # number of ReadSharedReq misses
system.l2.ReadSharedReq_misses::total            7528                       # number of ReadSharedReq misses
system.l2.ReadSharedReq_miss_latency::.cpu.data    853469000                       # number of ReadSharedReq miss cycles
system.l2.ReadSharedReq_miss_latency::total    853469000                       # number of ReadSharedReq miss cycles
system.l2.ReadSharedReq_accesses::.cpu.data        16542                       # number of ReadSharedReq accesses(hits+misses)
system.l2.ReadSharedReq_accesses::total         16542                       # number of ReadSharedReq accesses(hits+misses)
system.l2.ReadSharedReq_miss_rate::.cpu.data     0.455084                       # miss rate for ReadSharedReq accesses
system.l2.ReadSharedReq_miss_rate::total     0.455084                       # miss rate for ReadSharedReq accesses
system.l2.ReadSharedReq_avg_miss_latency::.cpu.data 113372.608927                       # average ReadSharedReq miss latency
system.l2.ReadSharedReq_avg_miss_latency::total 113372.608927                       # average ReadSharedReq miss latency
system.l2.ReadSharedReq_mshr_hits::.cpu.data            5                       # number of ReadSharedReq MSHR hits
system.l2.ReadSharedReq_mshr_hits::total            5                       # number of ReadSharedReq MSHR hits
system.l2.ReadSharedReq_mshr_misses::.cpu.data         7523                       # number of ReadSharedReq MSHR misses
system.l2.ReadSharedReq_mshr_misses::total         7523                       # number of ReadSharedReq MSHR misses
system.l2.ReadSharedReq_mshr_miss_latency::.cpu.data    702601000                       # number of ReadSharedReq MSHR miss cycles
system.l2.ReadSharedReq_mshr_miss_latency::total    702601000                       # number of ReadSharedReq MSHR miss cycles
system.l2.ReadSharedReq_mshr_miss_rate::.cpu.data     0.454782                       # mshr miss rate for ReadSharedReq accesses
system.l2.ReadSharedReq_mshr_miss_rate::total     0.454782                       # mshr miss rate for ReadSharedReq accesses
system.l2.ReadSharedReq_avg_mshr_miss_latency::.cpu.data 93393.725907                       # average ReadSharedReq mshr miss latency
system.l2.ReadSharedReq_avg_mshr_miss_latency::total 93393.725907                       # average ReadSharedReq mshr miss latency
system.l2.tags.pwrStateResidencyTicks::UNDEFINED 114393031000                       # Cumulative time (in ticks) in various power states
system.l2.tags.tagsinuse                  7977.877541                       # Cycle average of tags in use
system.l2.tags.total_refs                      110092                       # Total number of references to valid blocks.
system.l2.tags.sampled_refs                     47447                       # Sample count of references to valid blocks.
system.l2.tags.avg_refs                      2.320315                       # Average number of references to valid blocks.
system.l2.tags.warmup_cycle                     87000                       # Cycle when the warmup percentage was hit.
system.l2.tags.occ_blocks::.writebacks      67.032479                       # Average occupied blocks per requestor
system.l2.tags.occ_blocks::.cpu.inst        17.909989                       # Average occupied blocks per requestor
system.l2.tags.occ_blocks::.cpu.data      7892.935073                       # Average occupied blocks per requestor
system.l2.tags.occ_percent::.writebacks      0.008183                       # Average percentage of cache occupancy
system.l2.tags.occ_percent::.cpu.inst        0.002186                       # Average percentage of cache occupancy
system.l2.tags.occ_percent::.cpu.data        0.963493                       # Average percentage of cache occupancy
system.l2.tags.occ_percent::total            0.973862                       # Average percentage of cache occupancy
system.l2.tags.occ_task_id_blocks::1024          8192                       # Occupied blocks per task id
system.l2.tags.age_task_id_blocks_1024::0            2                       # Occupied blocks per task id
system.l2.tags.age_task_id_blocks_1024::1           17                       # Occupied blocks per task id
system.l2.tags.age_task_id_blocks_1024::2          236                       # Occupied blocks per task id
system.l2.tags.age_task_id_blocks_1024::3         2544                       # Occupied blocks per task id
system.l2.tags.age_task_id_blocks_1024::4         5393                       # Occupied blocks per task id
system.l2.tags.occ_task_id_percent::1024            1                       # Percentage of cache occupancy per task id
system.l2.tags.tag_accesses                    268303                       # Number of tag accesses
system.l2.tags.data_accesses                   268303                       # Number of data accesses
system.cpu_voltage_domain.voltage                   1                       # Voltage in Volts
system.mem_ctrls.pwrStateResidencyTicks::UNDEFINED 114393031000                       # Cumulative time (in ticks) in various power states
system.mem_ctrls.bytes_read::.cpu.inst          32768                       # Number of bytes read from this memory
system.mem_ctrls.bytes_read::.cpu.data        2965440                       # Number of bytes read from this memory
system.mem_ctrls.bytes_read::total            2998208                       # Number of bytes read from this memory
system.mem_ctrls.bytes_inst_read::.cpu.inst        32768                       # Number of instructions bytes read from this memory
system.mem_ctrls.bytes_inst_read::total         32768                       # Number of instructions bytes read from this memory
system.mem_ctrls.bytes_written::.writebacks      2405696                       # Number of bytes written to this memory
system.mem_ctrls.bytes_written::total         2405696                       # Number of bytes written to this memory
system.mem_ctrls.num_reads::.cpu.inst             512                       # Number of read requests responded to by this memory
system.mem_ctrls.num_reads::.cpu.data           46335                       # Number of read requests responded to by this memory
system.mem_ctrls.num_reads::total               46847                       # Number of read requests responded to by this memory
system.mem_ctrls.num_writes::.writebacks        37589                       # Number of write requests responded to by this memory
system.mem_ctrls.num_writes::total              37589                       # Number of write requests responded to by this memory
system.mem_ctrls.bw_read::.cpu.inst            286451                       # Total read bandwidth from this memory (bytes/s)
system.mem_ctrls.bw_read::.cpu.data          25923258                       # Total read bandwidth from this memory (bytes/s)
system.mem_ctrls.bw_read::total              26209709                       # Total read bandwidth from this memory (bytes/s)
system.mem_ctrls.bw_inst_read::.cpu.inst       286451                       # Instruction read bandwidth from this memory (bytes/s)
system.mem_ctrls.bw_inst_read::total           286451                       # Instruction read bandwidth from this memory (bytes/s)
system.mem_ctrls.bw_write::.writebacks       21030092                       # Write bandwidth from this memory (bytes/s)
system.mem_ctrls.bw_write::total             21030092                       # Write bandwidth from this memory (bytes/s)
system.mem_ctrls.bw_total::.writebacks       21030092                       # Total bandwidth to/from this memory (bytes/s)
system.mem_ctrls.bw_total::.cpu.inst           286451                       # Total bandwidth to/from this memory (bytes/s)
system.mem_ctrls.bw_total::.cpu.data         25923258                       # Total bandwidth to/from this memory (bytes/s)
system.mem_ctrls.bw_total::total             47239801                       # Total bandwidth to/from this memory (bytes/s)
system.mem_ctrls.avgPriority_.writebacks::samples     37589.00                       # Average QoS priority value for accepted requests
system.mem_ctrls.avgPriority_.cpu.inst::samples       512.00                       # Average QoS priority value for accepted requests
system.mem_ctrls.avgPriority_.cpu.data::samples     46318.00                       # Average QoS priority value for accepted requests
system.mem_ctrls.priorityMinLatency      0.000000018750                       # per QoS priority minimum request to response latency (s)
system.mem_ctrls.priorityMaxLatency      0.000990916500                       # per QoS priority maximum request to response latency (s)
system.mem_ctrls.numReadWriteTurnArounds         2109                       # Number of turnarounds from READ to WRITE
system.mem_ctrls.numWriteReadTurnArounds         2109                       # Number of turnarounds from WRITE to READ
system.mem_ctrls.numStayReadState              160053                       # Number of times bus staying in READ state
system.mem_ctrls.numStayWriteState              35487                       # Number of times bus staying in WRITE state
system.mem_ctrls.readReqs                       46847                       # Number of read requests accepted
system.mem_ctrls.writeReqs                      37589                       # Number of write requests accepted
system.mem_ctrls.readBursts                     46847                       # Number of DRAM read bursts, including those serviced by the write queue
system.mem_ctrls.writeBursts                    37589                       # Number of DRAM write bursts, including those merged in the write queue
system.mem_ctrls.servicedByWrQ                     17                       # Number of DRAM read bursts serviced by the write queue
system.mem_ctrls.mergedWrBursts                     0                       # Number of DRAM write bursts merged with an existing one
system.mem_ctrls.neitherReadNorWriteReqs            0                       # Number of requests that are neither read nor write
system.mem_ctrls.perBankRdBursts::0              2875                       # Per bank write bursts
system.mem_ctrls.perBankRdBursts::1              2759                       # Per bank write bursts
system.mem_ctrls.perBankRdBursts::2              2732                       # Per bank write bursts
system.mem_ctrls.perBankRdBursts::3              3175                       # Per bank write bursts
system.mem_ctrls.perBankRdBursts::4              3410                       # Per bank write bursts
system.mem_ctrls.perBankRdBursts::5              2852                       # Per bank write bursts
system.mem_ctrls.perBankRdBursts::6              2871                       # Per bank write bursts
system.mem_ctrls.perBankRdBursts::7              2894                       # Per bank write bursts
system.mem_ctrls.perBankRdBursts::8              2872                       # Per bank write bursts
system.mem_ctrls.perBankRdBursts::9              2908                       # Per bank write bursts
system.mem_ctrls.perBankRdBursts::10             2899                       # Per bank write bursts
system.mem_ctrls.perBankRdBursts::11             2939                       # Per bank write bursts
system.mem_ctrls.perBankRdBursts::12             2933                       # Per bank write bursts
system.mem_ctrls.perBankRdBursts::13             2881                       # Per bank write bursts
system.mem_ctrls.perBankRdBursts::14             2949                       # Per bank write bursts
system.mem_ctrls.perBankRdBursts::15             2881                       # Per bank write bursts
system.mem_ctrls.perBankWrBursts::0              2282                       # Per bank write bursts
system.mem_ctrls.perBankWrBursts::1              2214                       # Per bank write bursts
system.mem_ctrls.perBankWrBursts::2              2204                       # Per bank write bursts
system.mem_ctrls.perBankWrBursts::3              2414                       # Per bank write bursts
system.mem_ctrls.perBankWrBursts::4              2606                       # Per bank write bursts
system.mem_ctrls.perBankWrBursts::5              2341                       # Per bank write bursts
system.mem_ctrls.perBankWrBursts::6              2360                       # Per bank write bursts
system.mem_ctrls.perBankWrBursts::7              2355                       # Per bank write bursts
system.mem_ctrls.perBankWrBursts::8              2337                       # Per bank write bursts
system.mem_ctrls.perBankWrBursts::9              2340                       # Per bank write bursts
system.mem_ctrls.perBankWrBursts::10             2348                       # Per bank write bursts
system.mem_ctrls.perBankWrBursts::11             2366                       # Per bank write bursts
system.mem_ctrls.perBankWrBursts::12             2366                       # Per bank write bursts
system.mem_ctrls.perBankWrBursts::13             2338                       # Per bank write bursts
system.mem_ctrls.perBankWrBursts::14             2362                       # Per bank write bursts
system.mem_ctrls.perBankWrBursts::15             2334                       # Per bank write bursts
system.mem_ctrls.avgRdQLen                       1.06                       # Average read queue length when enqueuing
system.mem_ctrls.avgWrQLen                      24.10                       # Average write queue length when enqueuing
system.mem_ctrls.totQLat                    950821750                       # Total ticks spent queuing
system.mem_ctrls.totBusLat                  234150000                       # Total ticks spent in databus transfers
system.mem_ctrls.totMemAccLat              1828884250                       # Total ticks spent from burst creation until serviced by the DRAM
system.mem_ctrls.avgQLat                     20303.69                       # Average queueing delay per DRAM burst
system.mem_ctrls.avgBusLat                    5000.00                       # Average bus latency per DRAM burst
system.mem_ctrls.avgMemAccLat                39053.69                       # Average memory access latency per DRAM burst
system.mem_ctrls.numRdRetry                         0                       # Number of times read queue was full causing retry
system.mem_ctrls.numWrRetry                         0                       # Number of times write queue was full causing retry
system.mem_ctrls.readRowHits                    19041                       # Number of row buffer hits during reads
system.mem_ctrls.writeRowHits                   27753                       # Number of row buffer hits during writes
system.mem_ctrls.readRowHitRate                 40.66                       # Row buffer hit rate for reads
system.mem_ctrls.writeRowHitRate                73.83                       # Row buffer hit rate for writes
system.mem_ctrls.readPktSize::0                     0                       # Read request sizes (log2)
system.mem_ctrls.readPktSize::1                     0                       # Read request sizes (log2)
system.mem_ctrls.readPktSize::2                     0                       # Read request sizes (log2)
system.mem_ctrls.readPktSize::3                     0                       # Read request sizes (log2)
system.mem_ctrls.readPktSize::4                     0                       # Read request sizes (log2)
system.mem_ctrls.readPktSize::5                     0                       # Read request sizes (log2)
system.mem_ctrls.readPktSize::6                 46847                       # Read request sizes (log2)
system.mem_ctrls.writePktSize::0                    0                       # Write request sizes (log2)
system.mem_ctrls.writePktSize::1                    0                       # Write request sizes (log2)
system.mem_ctrls.writePktSize::2                    0                       # Write request sizes (log2)
system.mem_ctrls.writePktSize::3                    0                       # Write request sizes (log2)
system.mem_ctrls.writePktSize::4                    0                       # Write request sizes (log2)
system.mem_ctrls.writePktSize::5                    0                       # Write request sizes (log2)
system.mem_ctrls.writePktSize::6                37589                       # Write request sizes (log2)
system.mem_ctrls.rdQLenPdf::0                   44900                       # What read queue length does an incoming req see
system.mem_ctrls.rdQLenPdf::1                    1924                       # What read queue length does an incoming req see
system.mem_ctrls.rdQLenPdf::2                       6                       # What read queue length does an incoming req see
system.mem_ctrls.rdQLenPdf::3                       0                       # What read queue length does an incoming req see
system.mem_ctrls.rdQLenPdf::4                       0                       # What read queue length does an incoming req see
system.mem_ctrls.rdQLenPdf::5                       0                       # What read queue length does an incoming req see
system.mem_ctrls.rdQLenPdf::6                       0                       # What read queue length does an incoming req see
system.mem_ctrls.rdQLenPdf::7                       0                       # What read queue length does an incoming req see
system.mem_ctrls.rdQLenPdf::8                       0                       # What read queue length does an incoming req see
system.mem_ctrls.rdQLenPdf::9                       0                       # What read queue length does an incoming req see
system.mem_ctrls.rdQLenPdf::10                      0                       # What read queue length does an incoming req see
system.mem_ctrls.rdQLenPdf::11                      0                       # What read queue length does an incoming req see
system.mem_ctrls.rdQLenPdf::12                      0                       # What read queue length does an incoming req see
system.mem_ctrls.rdQLenPdf::13                      0                       # What read queue length does an incoming req see
system.mem_ctrls.rdQLenPdf::14                      0                       # What read queue length does an incoming req see
system.mem_ctrls.rdQLenPdf::15                      0                       # What read queue length does an incoming req see
system.mem_ctrls.rdQLenPdf::16                      0                       # What read queue length does an incoming req see
system.mem_ctrls.rdQLenPdf::17                      0                       # What read queue length does an incoming req see
system.mem_ctrls.rdQLenPdf::18                      0                       # What read queue length does an incoming req see
system.mem_ctrls.rdQLenPdf::19                      0                       # What read queue length does an incoming req see
system.mem_ctrls.rdQLenPdf::20                      0                       # What read queue length does an incoming req see
system.mem_ctrls.rdQLenPdf::21                      0                       # What read queue length does an incoming req see
system.mem_ctrls.rdQLenPdf::22                      0                       # What read queue length does an incoming req see
system.mem_ctrls.rdQLenPdf::23                      0                       # What read queue length does an incoming req see
system.mem_ctrls.rdQLenPdf::24                      0                       # What read queue length does an incoming req see
system.mem_ctrls.rdQLenPdf::25                      0                       # What read queue length does an incoming req see
system.mem_ctrls.rdQLenPdf::26                      0                       # What read queue length does an incoming req see
system.mem_ctrls.rdQLenPdf::27                      0                       # What read queue length does an incoming req see
system.mem_ctrls.rdQLenPdf::28                      0                       # What read queue length does an incoming req see
system.mem_ctrls.rdQLenPdf::29                      0                       # What read queue length does an incoming req see
system.mem_ctrls.rdQLenPdf::30                      0                       # What read queue length does an incoming req see
system.mem_ctrls.rdQLenPdf::31                      0                       # What read queue length does an incoming req see
system.mem_ctrls.wrQLenPdf::0                       1                       # What write queue length does an incoming req see
system.mem_ctrls.wrQLenPdf::1                       1                       # What write queue length does an incoming req see
system.mem_ctrls.wrQLenPdf::2                       1                       # What write queue length does an incoming req see
system.mem_ctrls.wrQLenPdf::3                       1                       # What write queue length does an incoming req see
system.mem_ctrls.wrQLenPdf::4                       1                       # What write queue length does an incoming req see
system.mem_ctrls.wrQLenPdf::5                       1                       # What write queue length does an incoming req see
system.mem_ctrls.wrQLenPdf::6                       1                       # What write queue length does an incoming req see
system.mem_ctrls.wrQLenPdf::7                       1                       # What write queue length does an incoming req see
system.mem_ctrls.wrQLenPdf::8                       1                       # What write queue length does an incoming req see
system.mem_ctrls.wrQLenPdf::9                       1                       # What write queue length does an incoming req see
system.mem_ctrls.wrQLenPdf::10                      1                       # What write queue length does an incoming req see
system.mem_ctrls.wrQLenPdf::11                      1                       # What write queue length does an incoming req see
system.mem_ctrls.wrQLenPdf::12                      1                       # What write queue length does an incoming req see
system.mem_ctrls.wrQLenPdf::13                      1                       # What write queue length does an incoming req see
system.mem_ctrls.wrQLenPdf::14                      1                       # What write queue length does an incoming req see
system.mem_ctrls.wrQLenPdf::15                   1828                       # What write queue length does an incoming req see
system.mem_ctrls.wrQLenPdf::16                   1830                       # What write queue length does an incoming req see
system.mem_ctrls.wrQLenPdf::17                   2107                       # What write queue length does an incoming req see
system.mem_ctrls.wrQLenPdf::18                   2113                       # What write queue length does an incoming req see
system.mem_ctrls.wrQLenPdf::19                   2116                       # What write queue length does an incoming req see
system.mem_ctrls.wrQLenPdf::20                   2127                       # What write queue length does an incoming req see
system.mem_ctrls.wrQLenPdf::21                   2120                       # What write queue length does an incoming req see
system.mem_ctrls.wrQLenPdf::22                   2125                       # What write queue length does an incoming req see
system.mem_ctrls.wrQLenPdf::23                   2138                       # What write queue length does an incoming req see
system.mem_ctrls.wrQLenPdf::24                   2121                       # What write queue length does an incoming req see
system.mem_ctrls.wrQLenPdf::25                   2124                       # What write queue length does an incoming req see
system.mem_ctrls.wrQLenPdf::26                   2114                       # What write queue length does an incoming req see
system.mem_ctrls.wrQLenPdf::27                   2124                       # What write queue length does an incoming req see
system.mem_ctrls.wrQLenPdf::28                   2142                       # What write queue length does an incoming req see
system.mem_ctrls.wrQLenPdf::29                   2115                       # What write queue length does an incoming req see
system.mem_ctrls.wrQLenPdf::30                   2111                       # What write queue length does an incoming req see
system.mem_ctrls.wrQLenPdf::31                   2109                       # What write queue length does an incoming req see
system.mem_ctrls.wrQLenPdf::32                   2109                       # What write queue length does an incoming req see
system.mem_ctrls.wrQLenPdf::33                      1                       # What write queue length does an incoming req see
system.mem_ctrls.wrQLenPdf::34                      0                       # What write queue length does an incoming req see
system.mem_ctrls.wrQLenPdf::35                      0                       # What write queue length does an incoming req see
system.mem_ctrls.wrQLenPdf::36                      0                       # What write queue length does an incoming req see
system.mem_ctrls.wrQLenPdf::37                      0                       # What write queue length does an incoming req see
system.mem_ctrls.wrQLenPdf::38                      0                       # What write queue length does an incoming req see
system.mem_ctrls.wrQLenPdf::39                      0                       # What write queue length does an incoming req see
system.mem_ctrls.wrQLenPdf::40                      0                       # What write queue length does an incoming req see
system.mem_ctrls.wrQLenPdf::41                      0                       # What write queue length does an incoming req see
system.mem_ctrls.wrQLenPdf::42                      0                       # What write queue length does an incoming req see
system.mem_ctrls.wrQLenPdf::43                      0                       # What write queue length does an incoming req see
system.mem_ctrls.wrQLenPdf::44                      0                       # What write queue length does an incoming req see
system.mem_ctrls.wrQLenPdf::45                      0                       # What write queue length does an incoming req see
system.mem_ctrls.wrQLenPdf::46                      0                       # What write queue length does an incoming req see
system.mem_ctrls.wrQLenPdf::47                      0                       # What write queue length does an incoming req see
system.mem_ctrls.wrQLenPdf::48                      0                       # What write queue length does an incoming req see
system.mem_ctrls.wrQLenPdf::49                      0                       # What write queue length does an incoming req see
system.mem_ctrls.wrQLenPdf::50                      0                       # What write queue length does an incoming req see
system.mem_ctrls.wrQLenPdf::51                      0                       # What write queue length does an incoming req see
system.mem_ctrls.wrQLenPdf::52                      0                       # What write queue length does an incoming req see
system.mem_ctrls.wrQLenPdf::53                      0                       # What write queue length does an incoming req see
system.mem_ctrls.wrQLenPdf::54                      0                       # What write queue length does an incoming req see
system.mem_ctrls.wrQLenPdf::55                      0                       # What write queue length does an incoming req see
system.mem_ctrls.wrQLenPdf::56                      0                       # What write queue length does an incoming req see
system.mem_ctrls.wrQLenPdf::57                      0                       # What write queue length does an incoming req see
system.mem_ctrls.wrQLenPdf::58                      0                       # What write queue length does an incoming req see
system.mem_ctrls.wrQLenPdf::59                      0                       # What write queue length does an incoming req see
system.mem_ctrls.wrQLenPdf::60                      0                       # What write queue length does an incoming req see
system.mem_ctrls.wrQLenPdf::61                      0                       # What write queue length does an incoming req see
system.mem_ctrls.wrQLenPdf::62                      0                       # What write queue length does an incoming req see
system.mem_ctrls.wrQLenPdf::63                      0                       # What write queue length does an incoming req see
system.mem_ctrls.bytesPerActivate::samples        37602                       # Bytes accessed per row activation
system.mem_ctrls.bytesPerActivate::mean    143.645125                       # Bytes accessed per row activation
system.mem_ctrls.bytesPerActivate::gmean   104.435699                       # Bytes accessed per row activation
system.mem_ctrls.bytesPerActivate::stdev   169.913134                       # Bytes accessed per row activation
system.mem_ctrls.bytesPerActivate::0-127        21070     56.03%     56.03% # Bytes accessed per row activation
system.mem_ctrls.bytesPerActivate::128-255        11768     31.30%     87.33% # Bytes accessed per row activation
system.mem_ctrls.bytesPerActivate::256-383         2264      6.02%     93.35% # Bytes accessed per row activation
system.mem_ctrls.bytesPerActivate::384-511          719      1.91%     95.26% # Bytes accessed per row activation
system.mem_ctrls.bytesPerActivate::512-639          345      0.92%     96.18% # Bytes accessed per row activation
system.mem_ctrls.bytesPerActivate::640-767          307      0.82%     97.00% # Bytes accessed per row activation
system.mem_ctrls.bytesPerActivate::768-895          296      0.79%     97.78% # Bytes accessed per row activation
system.mem_ctrls.bytesPerActivate::896-1023          364      0.97%     98.75% # Bytes accessed per row activation
system.mem_ctrls.bytesPerActivate::1024-1151          469      1.25%    100.00% # Bytes accessed per row activation
system.mem_ctrls.bytesPerActivate::total        37602                       # Bytes accessed per row activation
system.mem_ctrls.rdPerTurnAround::samples         2109                       # Reads before turning the bus around for writes
system.mem_ctrls.rdPerTurnAround::mean      22.201517                       # Reads before turning the bus around for writes
system.mem_ctrls.rdPerTurnAround::gmean     19.212668                       # Reads before turning the bus around for writes
system.mem_ctrls.rdPerTurnAround::stdev     84.652861                       # Reads before turning the bus around for writes
system.mem_ctrls.rdPerTurnAround::0-127          2105     99.81%     99.81% # Reads before turning the bus around for writes
system.mem_ctrls.rdPerTurnAround::256-383            1      0.05%     99.86% # Reads before turning the bus around for writes
[...]
system.cpu.icache.ReadReq_avg_miss_latency::total 101658.959538                       # average ReadReq miss latency
system.cpu.icache.ReadReq_mshr_misses::.cpu.inst          519                       # number of ReadReq MSHR misses
system.cpu.icache.ReadReq_mshr_misses::total          519                       # number of ReadReq MSHR misses
system.cpu.icache.ReadReq_mshr_miss_latency::.cpu.inst     51723000                       # number of ReadReq MSHR miss cycles
system.cpu.icache.ReadReq_mshr_miss_latency::total     51723000                       # number of ReadReq MSHR miss cycles
system.cpu.icache.ReadReq_mshr_miss_rate::.cpu.inst     0.000018                       # mshr miss rate for ReadReq accesses
system.cpu.icache.ReadReq_mshr_miss_rate::total     0.000018                       # mshr miss rate for ReadReq accesses
system.cpu.icache.ReadReq_avg_mshr_miss_latency::.cpu.inst 99658.959538                       # average ReadReq mshr miss latency
system.cpu.icache.ReadReq_avg_mshr_miss_latency::total 99658.959538                       # average ReadReq mshr miss latency
system.cpu.icache.tags.pwrStateResidencyTicks::UNDEFINED 114393031000                       # Cumulative time (in ticks) in various power states
system.cpu.icache.tags.tagsinuse           515.557520                       # Cycle average of tags in use
system.cpu.icache.tags.total_refs            28671129                       # Total number of references to valid blocks.
system.cpu.icache.tags.sampled_refs               519                       # Sample count of references to valid blocks.
system.cpu.icache.tags.avg_refs          55243.023121                       # Average number of references to valid blocks.
system.cpu.icache.tags.warmup_cycle            108000                       # Cycle when the warmup percentage was hit.
system.cpu.icache.tags.occ_blocks::.cpu.inst   515.557520                       # Average occupied blocks per requestor
system.cpu.icache.tags.occ_percent::.cpu.inst     0.251737                       # Average percentage of cache occupancy
system.cpu.icache.tags.occ_percent::total     0.251737                       # Average percentage of cache occupancy
system.cpu.icache.tags.occ_task_id_blocks::1024          517                       # Occupied blocks per task id
system.cpu.icache.tags.age_task_id_blocks_1024::4          517                       # Occupied blocks per task id
system.cpu.icache.tags.occ_task_id_percent::1024     0.252441                       # Percentage of cache occupancy per task id
system.cpu.icache.tags.tag_accesses          57342777                       # Number of tag accesses
system.cpu.icache.tags.data_accesses         57342777                       # Number of data accesses
system.cpu.dtb.walker.pwrStateResidencyTicks::UNDEFINED 114393031000                       # Cumulative time (in ticks) in various power states
system.cpu.dtb.stage2_mmu.stage2_tlb.walker.pwrStateResidencyTicks::UNDEFINED 114393031000                       # Cumulative time (in ticks) in various power states
system.cpu.dcache.pwrStateResidencyTicks::UNDEFINED 114393031000                       # Cumulative time (in ticks) in various power states
system.cpu.dcache.demand_hits::.cpu.data     35662098                       # number of demand (read+write) hits
system.cpu.dcache.demand_hits::total         35662098                       # number of demand (read+write) hits
system.cpu.dcache.overall_hits::.cpu.data     35665425                       # number of overall hits
system.cpu.dcache.overall_hits::total        35665425                       # number of overall hits
system.cpu.dcache.demand_misses::.cpu.data        75303                       # number of demand (read+write) misses
system.cpu.dcache.demand_misses::total          75303                       # number of demand (read+write) misses
system.cpu.dcache.overall_misses::.cpu.data        75337                       # number of overall misses
system.cpu.dcache.overall_misses::total         75337                       # number of overall misses
system.cpu.dcache.demand_miss_latency::.cpu.data   6977791000                       # number of demand (read+write) miss cycles
system.cpu.dcache.demand_miss_latency::total   6977791000                       # number of demand (read+write) miss cycles
system.cpu.dcache.overall_miss_latency::.cpu.data   6977791000                       # number of overall miss cycles
system.cpu.dcache.overall_miss_latency::total   6977791000                       # number of overall miss cycles
system.cpu.dcache.demand_accesses::.cpu.data     35737401                       # number of demand (read+write) accesses
system.cpu.dcache.demand_accesses::total     35737401                       # number of demand (read+write) accesses
system.cpu.dcache.overall_accesses::.cpu.data     35740762                       # number of overall (read+write) accesses
system.cpu.dcache.overall_accesses::total     35740762                       # number of overall (read+write) accesses
system.cpu.dcache.demand_miss_rate::.cpu.data     0.002107                       # miss rate for demand accesses
system.cpu.dcache.demand_miss_rate::total     0.002107                       # miss rate for demand accesses
system.cpu.dcache.overall_miss_rate::.cpu.data     0.002108                       # miss rate for overall accesses
system.cpu.dcache.overall_miss_rate::total     0.002108                       # miss rate for overall accesses
system.cpu.dcache.demand_avg_miss_latency::.cpu.data 92662.855398                       # average overall miss latency
system.cpu.dcache.demand_avg_miss_latency::total 92662.855398                       # average overall miss latency
system.cpu.dcache.overall_avg_miss_latency::.cpu.data 92621.036144                       # average overall miss latency
system.cpu.dcache.overall_avg_miss_latency::total 92621.036144                       # average overall miss latency
system.cpu.dcache.blocked_cycles::no_mshrs            0                       # number of cycles access was blocked
system.cpu.dcache.blocked_cycles::no_targets            0                       # number of cycles access was blocked
system.cpu.dcache.blocked::no_mshrs                 0                       # number of cycles access was blocked
system.cpu.dcache.blocked::no_targets               0                       # number of cycles access was blocked
system.cpu.dcache.avg_blocked_cycles::no_mshrs          nan                       # average number of cycles each access was blocked
system.cpu.dcache.avg_blocked_cycles::no_targets          nan                       # average number of cycles each access was blocked
system.cpu.dcache.writebacks::.writebacks        50473                       # number of writebacks
system.cpu.dcache.writebacks::total             50473                       # number of writebacks
system.cpu.dcache.demand_mshr_hits::.cpu.data        19855                       # number of demand (read+write) MSHR hits
system.cpu.dcache.demand_mshr_hits::total        19855                       # number of demand (read+write) MSHR hits
system.cpu.dcache.overall_mshr_hits::.cpu.data        19855                       # number of overall MSHR hits
system.cpu.dcache.overall_mshr_hits::total        19855                       # number of overall MSHR hits
system.cpu.dcache.demand_mshr_misses::.cpu.data        55448                       # number of demand (read+write) MSHR misses
system.cpu.dcache.demand_mshr_misses::total        55448                       # number of demand (read+write) MSHR misses
system.cpu.dcache.overall_mshr_misses::.cpu.data        55477                       # number of overall MSHR misses
system.cpu.dcache.overall_mshr_misses::total        55477                       # number of overall MSHR misses
system.cpu.dcache.demand_mshr_miss_latency::.cpu.data   5480232000                       # number of demand (read+write) MSHR miss cycles
system.cpu.dcache.demand_mshr_miss_latency::total   5480232000                       # number of demand (read+write) MSHR miss cycles
system.cpu.dcache.overall_mshr_miss_latency::.cpu.data   5482512000                       # number of overall MSHR miss cycles
system.cpu.dcache.overall_mshr_miss_latency::total   5482512000                       # number of overall MSHR miss cycles
system.cpu.dcache.demand_mshr_miss_rate::.cpu.data     0.001552                       # mshr miss rate for demand accesses
system.cpu.dcache.demand_mshr_miss_rate::total     0.001552                       # mshr miss rate for demand accesses
system.cpu.dcache.overall_mshr_miss_rate::.cpu.data     0.001552                       # mshr miss rate for overall accesses
system.cpu.dcache.overall_mshr_miss_rate::total     0.001552                       # mshr miss rate for overall accesses
system.cpu.dcache.demand_avg_mshr_miss_latency::.cpu.data 98835.521570                       # average overall mshr miss latency
system.cpu.dcache.demand_avg_mshr_miss_latency::total 98835.521570                       # average overall mshr miss latency
system.cpu.dcache.overall_avg_mshr_miss_latency::.cpu.data 98824.954486                       # average overall mshr miss latency
system.cpu.dcache.overall_avg_mshr_miss_latency::total 98824.954486                       # average overall mshr miss latency
system.cpu.dcache.replacements                  54453                       # number of replacements
system.cpu.dcache.ReadReq_hits::.cpu.data     21462912                       # number of ReadReq hits
system.cpu.dcache.ReadReq_hits::total        21462912                       # number of ReadReq hits
system.cpu.dcache.ReadReq_misses::.cpu.data        19738                       # number of ReadReq misses
system.cpu.dcache.ReadReq_misses::total         19738                       # number of ReadReq misses
system.cpu.dcache.ReadReq_miss_latency::.cpu.data   1258722000                       # number of ReadReq miss cycles
system.cpu.dcache.ReadReq_miss_latency::total   1258722000                       # number of ReadReq miss cycles
system.cpu.dcache.ReadReq_accesses::.cpu.data     21482650                       # number of ReadReq accesses(hits+misses)
system.cpu.dcache.ReadReq_accesses::total     21482650                       # number of ReadReq accesses(hits+misses)
system.cpu.dcache.ReadReq_miss_rate::.cpu.data     0.000919                       # miss rate for ReadReq accesses
system.cpu.dcache.ReadReq_miss_rate::total     0.000919                       # miss rate for ReadReq accesses
system.cpu.dcache.ReadReq_avg_miss_latency::.cpu.data 63771.506738                       # average ReadReq miss latency
system.cpu.dcache.ReadReq_avg_miss_latency::total 63771.506738                       # average ReadReq miss latency
system.cpu.dcache.ReadReq_mshr_hits::.cpu.data         3225                       # number of ReadReq MSHR hits
system.cpu.dcache.ReadReq_mshr_hits::total         3225                       # number of ReadReq MSHR hits
system.cpu.dcache.ReadReq_mshr_misses::.cpu.data        16513                       # number of ReadReq MSHR misses
system.cpu.dcache.ReadReq_mshr_misses::total        16513                       # number of ReadReq MSHR misses
system.cpu.dcache.ReadReq_mshr_miss_latency::.cpu.data   1090165000                       # number of ReadReq MSHR miss cycles
system.cpu.dcache.ReadReq_mshr_miss_latency::total   1090165000                       # number of ReadReq MSHR miss cycles
system.cpu.dcache.ReadReq_mshr_miss_rate::.cpu.data     0.000769                       # mshr miss rate for ReadReq accesses
system.cpu.dcache.ReadReq_mshr_miss_rate::total     0.000769                       # mshr miss rate for ReadReq accesses
system.cpu.dcache.ReadReq_avg_mshr_miss_latency::.cpu.data 66018.591413                       # average ReadReq mshr miss latency
system.cpu.dcache.ReadReq_avg_mshr_miss_latency::total 66018.591413                       # average ReadReq mshr miss latency
system.cpu.dcache.WriteReq_hits::.cpu.data     14199186                       # number of WriteReq hits
system.cpu.dcache.WriteReq_hits::total       14199186                       # number of WriteReq hits
system.cpu.dcache.WriteReq_misses::.cpu.data        55565                       # number of WriteReq misses
system.cpu.dcache.WriteReq_misses::total        55565                       # number of WriteReq misses
system.cpu.dcache.WriteReq_miss_latency::.cpu.data   5719069000                       # number of WriteReq miss cycles
system.cpu.dcache.WriteReq_miss_latency::total   5719069000                       # number of WriteReq miss cycles
system.cpu.dcache.WriteReq_accesses::.cpu.data     14254751                       # number of WriteReq accesses(hits+misses)
system.cpu.dcache.WriteReq_accesses::total     14254751                       # number of WriteReq accesses(hits+misses)
system.cpu.dcache.WriteReq_miss_rate::.cpu.data     0.003898                       # miss rate for WriteReq accesses
system.cpu.dcache.WriteReq_miss_rate::total     0.003898                       # miss rate for WriteReq accesses
system.cpu.dcache.WriteReq_avg_miss_latency::.cpu.data 102925.744623                       # average WriteReq miss latency
system.cpu.dcache.WriteReq_avg_miss_latency::total 102925.744623                       # average WriteReq miss latency
system.cpu.dcache.WriteReq_mshr_hits::.cpu.data        16630                       # number of WriteReq MSHR hits
system.cpu.dcache.WriteReq_mshr_hits::total        16630                       # number of WriteReq MSHR hits
system.cpu.dcache.WriteReq_mshr_misses::.cpu.data        38935                       # number of WriteReq MSHR misses
system.cpu.dcache.WriteReq_mshr_misses::total        38935                       # number of WriteReq MSHR misses
system.cpu.dcache.WriteReq_mshr_miss_latency::.cpu.data   4390067000                       # number of WriteReq MSHR miss cycles
system.cpu.dcache.WriteReq_mshr_miss_latency::total   4390067000                       # number of WriteReq MSHR miss cycles
system.cpu.dcache.WriteReq_mshr_miss_rate::.cpu.data     0.002731                       # mshr miss rate for WriteReq accesses
system.cpu.dcache.WriteReq_mshr_miss_rate::total     0.002731                       # mshr miss rate for WriteReq accesses
system.cpu.dcache.WriteReq_avg_mshr_miss_latency::.cpu.data 112753.743419                       # average WriteReq mshr miss latency
system.cpu.dcache.WriteReq_avg_mshr_miss_latency::total 112753.743419                       # average WriteReq mshr miss latency
system.cpu.dcache.SoftPFReq_hits::.cpu.data         3327                       # number of SoftPFReq hits
system.cpu.dcache.SoftPFReq_hits::total          3327                       # number of SoftPFReq hits
system.cpu.dcache.SoftPFReq_misses::.cpu.data           34                       # number of SoftPFReq misses
system.cpu.dcache.SoftPFReq_misses::total           34                       # number of SoftPFReq misses
system.cpu.dcache.SoftPFReq_accesses::.cpu.data         3361                       # number of SoftPFReq accesses(hits+misses)
system.cpu.dcache.SoftPFReq_accesses::total         3361                       # number of SoftPFReq accesses(hits+misses)
system.cpu.dcache.SoftPFReq_miss_rate::.cpu.data     0.010116                       # miss rate for SoftPFReq accesses
system.cpu.dcache.SoftPFReq_miss_rate::total     0.010116                       # miss rate for SoftPFReq accesses
system.cpu.dcache.SoftPFReq_mshr_misses::.cpu.data           29                       # number of SoftPFReq MSHR misses
system.cpu.dcache.SoftPFReq_mshr_misses::total           29                       # number of SoftPFReq MSHR misses
system.cpu.dcache.SoftPFReq_mshr_miss_latency::.cpu.data      2280000                       # number of SoftPFReq MSHR miss cycles
system.cpu.dcache.SoftPFReq_mshr_miss_latency::total      2280000                       # number of SoftPFReq MSHR miss cycles
system.cpu.dcache.SoftPFReq_mshr_miss_rate::.cpu.data     0.008628                       # mshr miss rate for SoftPFReq accesses
system.cpu.dcache.SoftPFReq_mshr_miss_rate::total     0.008628                       # mshr miss rate for SoftPFReq accesses
system.cpu.dcache.SoftPFReq_avg_mshr_miss_latency::.cpu.data 78620.689655                       # average SoftPFReq mshr miss latency
system.cpu.dcache.SoftPFReq_avg_mshr_miss_latency::total 78620.689655                       # average SoftPFReq mshr miss latency
system.cpu.dcache.LoadLockedReq_hits::.cpu.data        89082                       # number of LoadLockedReq hits
system.cpu.dcache.LoadLockedReq_hits::total        89082                       # number of LoadLockedReq hits
system.cpu.dcache.LoadLockedReq_accesses::.cpu.data        89082                       # number of LoadLockedReq accesses(hits+misses)
system.cpu.dcache.LoadLockedReq_accesses::total        89082                       # number of LoadLockedReq accesses(hits+misses)
system.cpu.dcache.StoreCondReq_hits::.cpu.data        89082                       # number of StoreCondReq hits
system.cpu.dcache.StoreCondReq_hits::total        89082                       # number of StoreCondReq hits
system.cpu.dcache.StoreCondReq_accesses::.cpu.data        89082                       # number of StoreCondReq accesses(hits+misses)
system.cpu.dcache.StoreCondReq_accesses::total        89082                       # number of StoreCondReq accesses(hits+misses)
system.cpu.dcache.tags.pwrStateResidencyTicks::UNDEFINED 114393031000                       # Cumulative time (in ticks) in various power states
system.cpu.dcache.tags.tagsinuse          1020.781297                       # Cycle average of tags in use
system.cpu.dcache.tags.total_refs            35899066                       # Total number of references to valid blocks.
system.cpu.dcache.tags.sampled_refs             55477                       # Sample count of references to valid blocks.
system.cpu.dcache.tags.avg_refs            647.098185                       # Average number of references to valid blocks.
system.cpu.dcache.tags.warmup_cycle            240000                       # Cycle when the warmup percentage was hit.
system.cpu.dcache.tags.occ_blocks::.cpu.data  1020.781297                       # Average occupied blocks per requestor
system.cpu.dcache.tags.occ_percent::.cpu.data     0.996857                       # Average percentage of cache occupancy
system.cpu.dcache.tags.occ_percent::total     0.996857                       # Average percentage of cache occupancy
system.cpu.dcache.tags.occ_task_id_blocks::1024         1024                       # Occupied blocks per task id
system.cpu.dcache.tags.age_task_id_blocks_1024::0            3                       # Occupied blocks per task id
system.cpu.dcache.tags.age_task_id_blocks_1024::1           26                       # Occupied blocks per task id
system.cpu.dcache.tags.age_task_id_blocks_1024::2          258                       # Occupied blocks per task id
system.cpu.dcache.tags.age_task_id_blocks_1024::3          677                       # Occupied blocks per task id
system.cpu.dcache.tags.age_task_id_blocks_1024::4           60                       # Occupied blocks per task id
system.cpu.dcache.tags.occ_task_id_percent::1024            1                       # Percentage of cache occupancy per task id
system.cpu.dcache.tags.tag_accesses          71893329                       # Number of tag accesses
system.cpu.dcache.tags.data_accesses         71893329                       # Number of data accesses
system.cpu.itb.walker.pwrStateResidencyTicks::UNDEFINED 114393031000                       # Cumulative time (in ticks) in various power states
system.cpu.itb.stage2_mmu.stage2_tlb.walker.pwrStateResidencyTicks::UNDEFINED 114393031000                       # Cumulative time (in ticks) in various power states

---------- End Simulation Statistics   ----------
